13
Properties=species:S:1:pos:R:3:forces:R:3 Coordinates=T from=T ORCA-job=T run=T Energy:=T 105.7493856=T energy=-88307.05459267266 pbc="F F F"
C        1.00500620       0.09158772      -0.22553508       0.01170279       0.03086676       0.00962232
H        1.80185557       2.08381842      -0.12340748      -0.00577926      -0.01544081      -0.01995025
Br      -2.20035031      -0.93041994       1.09728932      -0.01198141      -0.01523100      -0.00668243
Cl       2.36134092      -0.43251253       0.83340248       0.02389770      -0.00174668       0.02702004
C        0.81232158       1.60911643      -0.10560521      -0.00516595       0.00925096      -0.00591962
H        1.28324399      -0.19658022      -1.23827078      -0.00030409      -0.00870310      -0.00025372
H        0.11033045      -0.44805412       0.10320746      -0.01037647       0.01747438      -0.01875122
C        0.07509050       2.01538129       1.17400893       0.00976618      -0.00375110       0.00358718
H       -0.88379658       1.49439963       1.24427612       0.00315182       0.00747320      -0.02263391
H        0.67446849       1.72566333       2.03995051       0.00315445       0.00119606       0.01438560
H       -0.08188557       3.09743915       1.20178616       0.01092939      -0.00935787       0.01286445
C        0.12598333       2.11581975      -1.30381214       0.02747649      -0.00103454       0.01429687
N       -0.34885468       2.55360834      -2.25563436      -0.03673589      -0.01207947      -0.00040670
