13
Properties=species:S:1:pos:R:3:forces:R:3 Coordinates=T from=T ORCA-job=T run=T Energy:=T 34.7318345=T energy=-91798.76455522975 pbc="F F F"
C        0.10522838      -0.06905379      -0.19181718       0.02506878      -0.00344799      -0.00264802
H        1.61706678       1.35876852      -0.44269098       0.01443857       0.01034445       0.00248584
Br      -1.80101842      -0.29981304       0.12550837      -0.03028405       0.01255170       0.01090676
Cl       3.17671770       0.29537669       1.48390785      -0.01202075      -0.01476197       0.01332218
C        0.56279241       1.37162632      -0.12570884       0.00429940       0.00265231      -0.00890616
H        0.30967563      -0.50264850      -1.16548308      -0.00001923       0.01672091      -0.02322001
H        0.64104382      -0.61319886       0.58309787       0.02374673      -0.01484481       0.00173630
N        0.35835374       1.95441199       1.16670134      -0.02088648      -0.00995466      -0.00650760
H        0.54851084       2.94785066       1.11504177       0.00857560      -0.01270172      -0.02768628
H        1.09481053       1.54265368       1.74404365      -0.00813948       0.02614422       0.01050637
N       -0.12201131       2.19720088      -1.20109712       0.00067198      -0.02028591      -0.00133143
O       -0.46069234       3.32757831      -0.93049965       0.00206525       0.00201890       0.02007095
O       -0.22434496       1.69181302      -2.29945341      -0.01304065      -0.00613519       0.00357525
