13
Properties=species:S:1:pos:R:3:forces:R:3 Coordinates=T from=T ORCA-job=T run=T Energy:=T 34.6781499=T energy=-34275.625828634395 pbc="F F F"
C        0.08828648      -0.09469983      -0.17042588       0.01625738       0.00568943      -0.00372896
H        1.60480619       1.33582913      -0.43323426      -0.02080556       0.00069857      -0.01126004
Cl      -1.67593086      -0.28183393       0.10356380       0.02727018      -0.00610736       0.02393438
Cl       3.20017904       0.31587964       1.42022177      -0.01151786      -0.01493153       0.02384742
C        0.54868764       1.34542301      -0.12033229      -0.00750488       0.01280789       0.00840176
H        0.30934809      -0.54006237      -1.13595120      -0.01659149       0.00714515      -0.01317829
H        0.61933481      -0.62519743       0.61802304      -0.00801026      -0.01862775      -0.00719497
N        0.33806095       1.94395763       1.16503071      -0.00071101       0.00630481       0.01951479
H        0.51653269       2.93756961       1.08910081       0.00177808       0.01390670      -0.00161196
H        1.08175752       1.55944573       1.74923691       0.01708348      -0.01882866       0.00288638
N       -0.14378033       2.16435789      -1.19417563       0.02422797      -0.01638896      -0.01377635
O       -0.39808590       3.32286808      -0.94878837      -0.03187149       0.02993826      -0.01568186
O       -0.33344602       1.63048042      -2.26622380       0.00615502      -0.01137315      -0.00406995
