12
Properties=species:S:1:pos:R:3:forces:R:3 Coordinates=T from=T ORCA-job=T run=T Energy:=T 142.7214297=T energy=-146266.63463520975 pbc="F F F"
C        0.94081662       0.09073372      -0.03944444       0.10237630      -0.04160892       0.01919740
H        1.83121979       2.00275367      -0.40685120      -0.11725290       0.01896326       0.00972503
Br      -2.42146069      -0.53823398      -0.81605497      -0.03070027      -0.00248024       0.03546543
Br       2.67167793      -0.44292119       0.68493032       0.04523428      -0.14278452       0.08785016
C        0.85232691       1.61508930      -0.09128957       0.00280407      -0.08736646       0.00627821
H        0.86629660      -0.32449154      -1.04165695       0.02190373       0.08734613      -0.00022530
H        0.15880001      -0.35689760       0.57002573       0.03554067       0.01430297      -0.02172165
C        0.63045217       2.15765741       1.28063053       0.01322400      -0.00742556      -0.05751962
N        0.47497081       2.62170865       2.32246277      -0.01368463       0.01353603      -0.06006781
N       -0.14800221       1.98530726      -1.06838549       0.01952723       0.01696378      -0.02013402
H       -0.41941422       2.95126724      -0.95721585      -0.08679697       0.07079239       0.01838218
H       -0.97702746       1.38710252      -0.98383203       0.00283067       0.06382833      -0.01721084
