13
Properties=species:S:1:pos:R:3:forces:R:3 Coordinates=T from=T ORCA-job=T run=T Energy:=T 40.7586295=T energy=-24468.130743736794 pbc="F F F"
C        0.96047579       0.05846467      -0.10664422       0.00019931       0.01154267       0.03009377
H        1.74092519       2.09189677      -0.24947047       0.00300801      -0.00566643      -0.01455732
F       -1.69918788      -0.00751862      -0.47968836       0.02287715      -0.00475490       0.00486351
Cl       2.38195393      -0.44632345       0.89099269       0.01092304      -0.00137548      -0.03270454
C        0.78990846       1.56209538      -0.12366967      -0.00704487       0.00361292       0.01713963
H        1.15876993      -0.27188284      -1.12392697      -0.02077980       0.02544675       0.03205670
H        0.02582604      -0.39102217       0.23980508       0.00854750      -0.01619774       0.00070695
N        0.37204061       2.06716023       1.30123517      -0.03679516      -0.01201550      -0.01340020
O        0.34603135       3.28302262       1.41392335       0.01314833       0.01584750       0.00193657
O        0.07371350       1.29593940       2.17859265       0.00790163      -0.01448677      -0.02725280
N       -0.17509962       1.91899964      -1.08922088       0.00290366      -0.01653186       0.00371294
H       -0.43557533       2.89107095      -0.98149241       0.02267351      -0.01562021      -0.01569891
H       -0.99156004       1.23665163      -0.95169511      -0.02475740       0.03265710      -0.00119187
