13
Properties=species:S:1:pos:R:3:forces:R:3 Coordinates=T from=T ORCA-job=T run=T Energy:=T 36.6916465=T energy=-81991.2542109327 pbc="F F F"
C        0.31849081      -0.06800909      -0.18663649      -0.00395730       0.01140695       0.00915199
H        1.64303760       1.50274540      -0.55534342      -0.00259805      -0.01400987       0.01527020
Br      -1.55680172      -0.49527528       0.15904498       0.02467383       0.01748644       0.00215819
F        2.10483531       0.22886857       1.89266801      -0.00326774       0.00322090      -0.01295040
C        0.60900507       1.41772839      -0.17932350       0.00746322      -0.00845823      -0.00619762
H        0.55325598      -0.51313413      -1.15003301      -0.00324407      -0.00971655       0.03403931
H        0.93490291      -0.44317460       0.64717104       0.00519210      -0.00878603      -0.02368289
N        0.38930430       1.98901667       1.10034944       0.02458461      -0.00379461      -0.02399892
H        0.74297832       2.93850515       1.10688216      -0.01903434       0.00010947      -0.00721110
H        1.03758211       1.39189403       1.68909172      -0.02975017      -0.00783748       0.02141745
N       -0.17836104       2.13975379      -1.27787599      -0.00016918       0.02268828      -0.00755318
O       -0.69143646       3.20402849      -1.01976346       0.01451983      -0.00708816       0.00320236
O       -0.17566911       1.62957661      -2.38298233      -0.00469306      -0.00347937       0.01367023
