10
Properties=species:S:1:pos:R:3:forces:R:3 Coordinates=T from=T ORCA-job=T run=T Energy:=T 42.2635182=T energy=-10100.28309222694 pbc="F F F"
C        1.01574242      -0.03384468      -0.18536406       0.02377513      -0.00770794      -0.01450191
H        1.14717894       1.97999764       0.57634370       0.00888765      -0.02014391      -0.02056039
F       -1.27107722       0.25103461       1.28264325      -0.02088613       0.02813071       0.00791114
F        2.34046568      -0.15321761      -0.66819428       0.02899771       0.00826850       0.00574198
C        0.53008293       1.38552647      -0.10481431      -0.03892815      -0.01271612       0.02056178
H        0.37610080      -0.61831775      -0.84876379      -0.00873953      -0.00337749      -0.00952931
H        0.96473983      -0.46314515       0.81267102       0.00292211       0.00564640       0.00603411
H       -0.49015947       1.15030093       0.45083137       0.00935920      -0.00713633       0.00953502
C        0.41862972       2.05434491      -1.38270410       0.00751324       0.00403553      -0.00413607
N        0.30745946       2.59388461      -2.39784200      -0.00929609       0.00072934       0.01265002
