12
Properties=species:S:1:pos:R:3:forces:R:3 Coordinates=T from=T ORCA-job=T run=T Energy:=T 32.1135841=T energy=-88743.28355735855 pbc="F F F"
C        0.30789655       0.09580390       0.63494690      -0.00831362      -0.00608639       0.00105892
H        1.01223005       1.26023544      -0.98977502      -0.00887067      -0.00919811      -0.02708024
Br       0.54257678      -0.60711404      -2.85237872       0.00912748      -0.00993551       0.00947198
Cl       1.87259739      -0.54897535       1.23718123       0.02395936      -0.02915619       0.00128149
C        0.50007835       1.45132286      -0.03679443      -0.00379271       0.00666273       0.00683629
H       -0.05236029      -0.61054634      -0.11224547      -0.00207169      -0.00859654      -0.01406314
H       -0.34995926       0.16657786       1.50004472      -0.00544623       0.01456943       0.01152980
N        1.15582045       2.41496697       0.85251306       0.00496291       0.02077932       0.03138876
H        1.36949562       3.24712524       0.31637273      -0.00253097       0.03664817       0.00576594
H        2.04571388       2.01992092       1.13406240       0.01322144      -0.01403091      -0.00902976
C       -0.83851522       1.97857869      -0.35519422      -0.01188203       0.00040711      -0.00381827
N       -1.87572864       2.43403459      -0.55053616      -0.01652225       0.00696673      -0.01070913
