15
Properties=species:S:1:pos:R:3:forces:R:3 Coordinates=T from=T ORCA-job=T run=T Energy:=T 16.8445757=T energy=-19535.676927639062 pbc="F F F"
C        0.35932068      -0.06168655      -0.17310835       0.00361376       0.00599293       0.00387967
H        1.62705991       1.52482848      -0.33508825      -0.01963175      -0.00228393       0.00111786
Cl      -1.39073534      -0.56587528       0.06607307       0.00699736      -0.01365953      -0.00664117
F        2.36861432       0.10611072       1.62013632      -0.00123251       0.00508808       0.00538016
C        0.54113980       1.44569506      -0.19582541      -0.00990820       0.00563089       0.00612225
H        0.64069167      -0.51988770      -1.12403734       0.02012400      -0.00037912       0.00241525
H        0.98467356      -0.42503538       0.66497370       0.01189665      -0.00946249       0.00084017
C        0.26981143       2.03044453       1.18714742       0.00867024       0.00047992       0.00809911
H       -0.76512712       1.85181311       1.50440090      -0.00408204       0.02722671      -0.00780225
H        0.97619978       1.51016319       1.84803154       0.00351157      -0.02793654       0.01645011
H        0.45457856       3.11247342       1.20916168       0.00695468       0.00643877      -0.02255371
C       -0.20204641       2.14263512      -1.33010739      -0.00224512      -0.00291775      -0.00231380
H        0.06662375       1.71765964      -2.30536810      -0.00294724       0.00931367      -0.01285387
H       -1.28653220       2.03925601      -1.21357426       0.00066977       0.00479118       0.01029638
H        0.02985578       3.21397932      -1.35696955       0.00248798      -0.00522466       0.00690203
