12
Properties=species:S:1:pos:R:3:forces:R:3 Coordinates=T from=T ORCA-job=T run=T Energy:=T 200.9250166=T energy=-25473.01422318009 pbc="F F F"
C        0.77021590      -0.07811116       0.25972421       0.03194552       0.04699074      -0.09431025
H        1.60753024       1.88069418       0.24903543      -0.06086273       0.02174578       0.14300937
Cl      -1.12524006       0.31655158      -2.35794565      -0.02166461       0.04278210       0.05854057
F        1.78587389      -0.36744760      -0.59996887       0.01131225      -0.19111142      -0.00219861
C        0.61548287       1.42332145       0.27391211       0.01196313       0.08394516      -0.02434861
H       -0.13151356      -0.60602998      -0.02743521      -0.15005954      -0.02781080      -0.25620659
H        0.09480318       1.63333067      -0.67223179       0.02699706      -0.03252901      -0.07394093
N        1.20915679      -0.70323820       1.57346170       0.13841248       0.00550687       0.04491468
O        1.77578811      -0.00704716       2.38920214      -0.05622204      -0.11847442      -0.04104904
O        1.00601295      -1.89485345       1.66719220       0.06769162       0.25031670       0.16497056
C       -0.17735044       1.96522299       1.36851478      -0.11406904      -0.02787426       0.17716823
N       -0.81819372       2.40869196       2.21509641       0.10265728      -0.04675061      -0.09115076
