15
Properties=species:S:1:pos:R:3:forces:R:3 Coordinates=T from=T ORCA-job=T run=T Energy:=T 106.4549833=T energy=-36348.72658142373 pbc="F F F"
C        0.84551193       0.00935236       0.04960029       0.00396612      -0.00910746      -0.01465281
H        1.73571713       1.85901605       0.63436530      -0.01202704       0.00851442      -0.00260177
Cl      -2.33942284      -0.79198098       0.11905548      -0.00949879       0.01004986      -0.02442677
Cl       2.02229302      -0.51467469      -1.17734375      -0.00471061       0.00026827       0.01028876
C        0.78905992       1.53309208       0.19158827       0.00374476      -0.01446189      -0.00937664
H       -0.13899152      -0.43886465      -0.16375374       0.00376648       0.02666430      -0.01054064
N        1.29863602      -0.62747261       1.35680584      -0.01772889       0.01376602       0.03067453
O        1.73426253       0.09820927       2.23045199       0.02321070      -0.01008463       0.00487088
O        1.20006583      -1.82273322       1.42969872       0.01458783      -0.00087983      -0.01020068
C       -0.38623574       1.97889029       1.07534652       0.00254588       0.00078242      -0.00820200
H       -1.32558873       1.57618625       0.69049951       0.00075522      -0.01009292       0.02123571
H       -0.24260130       1.60747341       2.09002181      -0.01817743       0.00626065      -0.00341985
H       -0.43177084       3.07016193       1.10515740       0.01294346       0.00504703       0.00475008
C        0.70186223       2.18693494      -1.12130548       0.00385126      -0.01136540       0.01493786
N        0.65747553       2.77400287      -2.10867065      -0.02204484      -0.01552830      -0.00094942
