16
Properties=species:S:1:pos:R:3:forces:R:3 Coordinates=T from=T ORCA-job=T run=T Energy:=T 56.2098379=T energy=-35345.04420917147 pbc="F F F"
C        0.91028655      -0.00861498       0.08802999       0.00760262      -0.02241533       0.02416116
H        1.71865666       1.91225576       0.50162518      -0.01627020       0.01108460      -0.02402385
Cl      -2.36945620       0.12762111      -1.18095193       0.03281126       0.01190200       0.00413980
Cl       2.25934379      -0.48698727      -0.97331311      -0.03256667       0.01284053       0.03233816
C        0.74853560       1.50640336       0.19271370      -0.00009828      -0.02453054      -0.02836067
H       -0.00079546      -0.49253169      -0.27075420      -0.01001421       0.02913120      -0.02459118
N        1.22768482      -0.62732378       1.43519344      -0.00244950      -0.00723130       0.04012342
O        1.97692978      -0.02225422       2.17385972       0.03586343      -0.01253618       0.01199690
O        0.72784076      -1.69958742       1.67916332      -0.00925542       0.01982854      -0.00147783
C       -0.31418699       1.86622148       1.24129306       0.01247587      -0.01999502      -0.01736146
H       -1.26917103       1.39663652       0.98841529       0.00644091      -0.01376399      -0.00666147
H       -0.01224169       1.58594264       2.25501914      -0.01722450      -0.00222155      -0.00427547
H       -0.46314378       2.95131190       1.22731052       0.02140577      -0.01745253       0.01102506
N        0.44272906       1.97773628      -1.14965947      -0.01224762       0.02876919       0.00080933
H        0.38195952       2.98778457      -1.13584722      -0.01144022       0.02734898       0.01741376
H       -0.47961703       1.62213760      -1.41157735       0.00967723      -0.01337856      -0.02982217
