14
Properties=species:S:1:pos:R:3:forces:R:3 Coordinates=T from=T ORCA-job=T run=T Energy:=T 22.7937709=T energy=-33838.85061968371 pbc="F F F"
C        0.20938453      -0.05294257       0.15880587      -0.02157336       0.00987033      -0.00509040
H        1.43724280       1.61460433       0.41465111      -0.00736307       0.00239973       0.00320855
Cl      -1.46957132      -0.54320258      -0.23250983       0.00115750      -0.00347698       0.01322911
Cl       3.10038952      -0.00534537      -1.45867270      -0.00091949      -0.02785839      -0.00217318
C        0.39481272       1.44422560       0.13500932       0.00175955      -0.00850392      -0.01084679
H        0.89234517      -0.55037108      -0.53659383       0.00674159       0.01419526       0.03633962
H       -0.24751816       1.90837126       0.89050403       0.00443223      -0.00681257      -0.02802216
N        0.51694048      -0.64579436       1.52980628       0.00203804       0.01025218      -0.02067330
O        0.81129308       0.11751032       2.42316085      -0.02036720      -0.02088226      -0.00093732
O        0.45822090      -1.84772887       1.63146739       0.02979084       0.00347193      -0.01246581
C        0.16110987       2.02137075      -1.25656590       0.00601752       0.00852865       0.00967329
H        0.85992499       1.56356374      -1.96144722      -0.02225571       0.00114990      -0.00232320
H       -0.86660324       1.86334347      -1.59810247       0.01907597       0.00455761      -0.00803432
H        0.35332788       3.09784776      -1.24727002      -0.00719537       0.00933606       0.00272371
