14
Properties=species:S:1:pos:R:3:forces:R:3 Coordinates=T from=T ORCA-job=T run=T Energy:=T 36.6270338=T energy=-23486.52265993637 pbc="F F F"
C        0.24682343      -0.08494625       0.22991870      -0.00655717      -0.04621953       0.00806416
H        1.60399063       1.48207648       0.37821690      -0.00950955       0.02459028       0.01579816
Cl      -1.48366789      -0.47440996      -0.11786251       0.04034273       0.02836991       0.00552771
F        1.93658872      -0.20192021      -1.68806158       0.01128854      -0.02126481       0.00181376
C        0.52346421       1.42461754       0.21136320      -0.00494201      -0.04263961       0.01287976
H        0.93014559      -0.43603594      -0.65071706       0.02005734       0.00725888      -0.02752193
C        0.62119693      -0.70394455       1.48994278       0.01134713       0.01225565       0.00098769
N        0.96163282      -1.19311567       2.47619529      -0.01523897       0.00391825      -0.03798536
C       -0.16098563       2.15768446       1.28502324       0.00985251       0.00424318       0.01761841
N       -0.69841916       2.74945051       2.11279727      -0.00991578       0.02727600       0.00776208
C        0.24813726       2.02956263      -1.16640894      -0.01736812       0.01050345      -0.01182802
H        0.82870602       1.41276400      -1.86130677      -0.01111340      -0.01780707       0.00034620
H       -0.81750285       1.99635334      -1.40220732      -0.02310945      -0.01233546      -0.03157223
H        0.57931495       3.07072109      -1.19961380       0.01637249       0.01827303       0.01242628
