16
Properties=species:S:1:pos:R:3:forces:R:3 Coordinates=T from=T ORCA-job=T run=T Energy:=T 16.1103625=T energy=-22047.490141610484 pbc="F F F"
C        0.21403895      -0.07262017       0.23867915       0.02004713      -0.03390909       0.01668763
H        1.60482239       1.49459352       0.30076990      -0.01736994      -0.00847574      -0.02093558
F       -1.16434117      -0.29225050       0.08512338       0.00148693       0.00676544      -0.00708908
Cl       2.78249909      -0.34665477      -1.95768660       0.00206299      -0.00901842       0.00241766
C        0.51734018       1.42215342       0.17961968      -0.00103704      -0.04622129       0.01186908
H        0.75061744      -0.58692904      -0.56843046       0.00840393       0.03066533       0.02532011
C        0.59134710      -0.66722642       1.53544329      -0.01573595       0.02746976      -0.02231079
N        0.86235478      -1.10845967       2.56190855       0.01116592      -0.01240000       0.02176961
C       -0.19602319       2.19187795       1.28964275       0.00849421      -0.00200823      -0.00485378
H       -1.28190296       2.10285387       1.18194436       0.01458574      -0.00942736       0.01791584
H        0.07809183       1.82956415       2.28614709      -0.01054655      -0.00526054      -0.02471884
H        0.05933927       3.25456914       1.23957215      -0.00550754       0.01004821      -0.00284989
C        0.15991685       1.94928281      -1.20669273       0.00399452       0.00403474       0.00631959
H        0.72381922       1.40085861      -1.96613447      -0.02361725       0.02001756       0.00052009
H       -0.91433620       1.84707347      -1.39405831       0.01193063      -0.00745454      -0.01764587
H        0.42012438       3.00923226      -1.28607274      -0.00584209       0.02496094      -0.00030726
