12
Properties=species:S:1:pos:R:3:forces:R:3 Coordinates=T from=T ORCA-job=T run=T Energy:=T 58.9314433=T energy=-21412.14361743145 pbc="F F F"
C        0.28441479      -0.05769735       0.03186060      -0.02595456      -0.01757593       0.00376576
H        1.62357530       1.44425720       0.06386554      -0.01189721       0.00623063      -0.01542399
Cl      -1.53534397      -0.40278446      -0.13670819       0.03884478       0.00011682      -0.00662859
F        2.69277138      -0.08904497      -0.14604459       0.00316902      -0.01541039       0.03756834
C        0.52615912       1.44148720       0.03644965      -0.00945002      -0.00959573      -0.00675824
H        0.80390671      -0.50113373      -0.80881587      -0.04268271      -0.00809214       0.00589109
H        0.09727717       1.87825681       0.95268922       0.02584483       0.02095332      -0.00587536
C        0.72882396      -0.69453770       1.27136268       0.02036215       0.02634998      -0.03665002
N        0.89876969      -1.18260480       2.30017027      -0.00121929      -0.01675684       0.01644922
N        0.03614445       2.05177046      -1.19366108       0.01297009       0.01231242       0.01990960
H        0.57114016       2.88628133      -1.39185396      -0.02135045      -0.00215814       0.01545912
H       -0.93606897       2.31711212      -1.09880210       0.00895232      -0.00812912      -0.01385087
