15
Properties=species:S:1:pos:R:3:forces:R:3 Coordinates=T from=T ORCA-job=T run=T Energy:=T 34.7926170=T energy=-22482.644842811813 pbc="F F F"
C        0.52339437      -0.09624742       0.03714015       0.00567089       0.04109865      -0.00818661
H        1.46564855       1.46421289      -0.98962667      -0.00436378       0.00740481      -0.02554047
Cl       0.26015912      -1.02444413      -1.49677568      -0.00313541      -0.01080757       0.01090039
F        3.02636428       0.21689122       0.84652918      -0.00511788      -0.00800356       0.02693870
C        0.66228695       1.40821180      -0.24039223       0.00366115       0.02376835       0.01214293
H        1.54315447      -0.35814596       0.44275747      -0.00590389      -0.01802584      -0.01587762
C       -0.56024209      -0.40821138       0.96148589       0.01176760       0.00569734       0.02599947
N       -1.41632289      -0.66089856       1.68932574       0.00776159      -0.01675794      -0.04320491
N        1.06646761       1.97504575       1.03791659       0.00290640       0.01727251       0.01851325
H        1.26168997       2.96140172       0.90786944       0.00138909       0.02830630      -0.02046839
H        1.96392954       1.48948059       1.23713913       0.01545752      -0.02817899      -0.00249971
C       -0.60070032       2.07018629      -0.76716982      -0.00271884      -0.00506841       0.01472363
H       -0.92526317       1.63338858      -1.71651983      -0.00353321       0.00005401       0.01255685
H       -1.40736276       1.97106630      -0.03473673      -0.01875062       0.01324727      -0.00003032
H       -0.42582614       3.14034746      -0.93134740       0.00192679      -0.02002836      -0.00198553
