14
Properties=species:S:1:pos:R:3:forces:R:3 Coordinates=T from=T ORCA-job=T run=T Energy:=T 68.4595158=T energy=-20216.869637485193 pbc="F F F"
C        0.58581147       0.12403980      -0.07971169      -0.00931593      -0.03638952      -0.01002061
H        1.67009296       1.89095846      -0.08050924       0.01743011      -0.00852306      -0.00837226
Cl      -1.17800857      -0.48288241      -0.05918213       0.02459268       0.01301387      -0.02605061
H        1.37662175      -1.65338945       0.94691387      -0.02575096       0.03046526      -0.02830543
C        0.60227571       1.64741790      -0.05105385       0.00882027      -0.02057613       0.02278051
H        0.93627225      -0.23724924      -1.05135273      -0.00010948       0.00266491      -0.02554737
C        1.38397659      -0.52541455       1.09143520      -0.00070652       0.00071740       0.00558388
N        1.95126474       0.09560410       1.99977042      -0.00163434       0.00597244       0.02412569
N        0.10220181       2.22226391       1.19152346       0.00518509      -0.00169526       0.02875719
H        0.73766608       1.81382885       1.88894059       0.01572529      -0.00192544       0.01620693
H       -0.80243466       1.79566114       1.38209367      -0.01890541       0.03454660      -0.00597043
N       -0.01425140       2.22376925      -1.24313266      -0.01346901      -0.00335550       0.02214118
H       -0.07072371       3.22089916      -1.05837898      -0.01481455       0.00641932      -0.03005333
H       -0.97734900       1.90244606      -1.28648061      -0.00453504      -0.02649813       0.01134159
