14
Properties=species:S:1:pos:R:3:forces:R:3 Coordinates=T from=T ORCA-job=T run=T Energy:=T 141.2193377=T energy=-33293.69075411663 pbc="F F F"
C        0.75405354      -0.05077700       0.17181189       0.00723789       0.02654873      -0.01630358
H        1.80813905       1.81737317       0.27279711       0.00755199       0.00305937       0.04440945
Cl      -2.27629817      -0.43439018      -1.10092321       0.01905095      -0.02841706       0.01393292
Cl       1.92985588      -0.67855733      -1.03536820      -0.02139254      -0.00195132      -0.04472007
C        0.76945368       1.49284116       0.13815703       0.00369637       0.03439674      -0.01132655
H       -0.24411417      -0.42060637      -0.13034848       0.00308404       0.01561826      -0.00588365
C        1.14521612      -0.57294329       1.47898338      -0.03875174       0.00887868       0.01032085
N        1.46108699      -0.96429449       2.51250155       0.01860588      -0.02473909       0.01731856
C        0.02413034       2.03304028       1.28424689       0.02276216       0.01636690       0.01043686
N       -0.50679963       2.50661316       2.18694830      -0.02862256       0.01330318      -0.01116219
C        0.21944469       2.05699722      -1.17643479      -0.01003591      -0.00100798      -0.02191386
H        0.87233097       1.76947898      -2.00224261      -0.00473213      -0.02000032      -0.01214471
H       -0.78032791       1.66027055      -1.36749833      -0.01184704      -0.02038856       0.00423300
H        0.17958931       3.14844360      -1.13171955       0.02856816      -0.01185182       0.03643477
