13
Properties=species:S:1:pos:R:3:forces:R:3 Coordinates=T from=T ORCA-job=T run=T Energy:=T 82.7407838=T energy=-78742.39150150909 pbc="F F F"
C        0.39837546      -0.05633580       0.02670144       0.64950467      -0.00619515      -0.37499940
H        1.68251855       1.58295143       0.08683871       0.24585112       0.00463752       0.10813153
Br      -1.66632182      -0.35412060      -0.21060949      -0.37121737      -0.03032017       0.04132867
H        2.55158994      -0.09354473       0.17019617       0.03673355      -0.36502720       0.10359332
C        0.60593852       1.47634631       0.05217298      -0.08185737      -0.09050329       0.12259843
H        0.79693530      -0.50095387      -0.88500351      -0.11856919       0.36257905       0.16759330
C        0.78467289      -0.83697293       1.18406666      -0.25988303       0.02864678       0.77825175
N        0.68147849      -1.46158705       2.16036867       0.32935156       0.18389143      -0.48829664
C        0.08365075       2.16953690       1.25774388      -0.00927275      -0.07581724       0.39720888
N       -0.20050097       2.81899504       2.16986620      -0.01584094      -0.24671696      -0.43707494
N        0.12236861       2.04685562      -1.18868961      -0.78168026       0.40804810      -0.06482715
H        0.14856655       3.07003949      -1.12045086       0.03390720      -0.55334823      -0.08296731
H       -0.86426345       1.77318586      -1.24785957       0.34398196       0.37669356      -0.27417877
