12
Properties=species:S:1:pos:R:3:forces:R:3 Coordinates=T from=T ORCA-job=T run=T Energy:=T 122.7939146=T energy=-78937.32776371678 pbc="F F F"
C        1.01310574      -0.04432704       0.04224159      -0.00542431       0.00761431      -0.00397289
H        1.57149341       1.95038342       0.55168481       0.00120127      -0.00906375       0.00268866
Br      -2.56643231       0.20896585      -0.68311036       0.00721497      -0.01440076       0.00433473
F        2.16612319      -0.24744220      -0.71064868      -0.00008719      -0.01879352      -0.00503712
C        0.68785081       1.43625217       0.15447146       0.00421820       0.00552550      -0.01759562
H        0.17661377      -0.56170098      -0.43851617      -0.01678884       0.01080357      -0.02604754
H       -0.12956684       1.52521185       0.88610751       0.00303085      -0.00122595      -0.01817142
C        1.25617282      -0.64463666       1.36806921      -0.00593039       0.01230712      -0.01450879
N        1.47706001      -1.10716025       2.39657331       0.00822502      -0.00367950       0.04851030
N        0.36309153       1.95506046      -1.16367614       0.00179127       0.00623113      -0.01156617
H        0.24443351       2.95868133      -1.09849837       0.01532262       0.02167773       0.02908492
H       -0.55650282       1.58216841      -1.40714062      -0.00052967      -0.02256212       0.01785536
