14
Properties=species:S:1:pos:R:3:forces:R:3 Coordinates=T from=T ORCA-job=T run=T Energy:=T 60.8979366=T energy=-10977.952853741723 pbc="F F F"
C        0.49630208       0.04106253      -0.10710507       0.02964080      -0.04113469       0.01647010
H        1.55386418       1.89378548      -0.00087373       0.02270450      -0.11354310       0.02017052
F       -0.86606708      -0.34736707      -0.03116649       0.04025824      -0.05456801      -0.01246409
H        1.86357095      -1.57222545       0.45962548      -0.09218169       0.08722480       0.11574897
C        0.50593224       1.57267446      -0.01954764       0.00722993      -0.02058757       0.00822573
H        0.82857657      -0.28423897      -1.10472205      -0.00786845       0.05383538      -0.01648135
C        1.35400480      -0.67624808       0.97549519       0.01928571       0.03736831       0.25823456
N        1.46829008      -0.36146659       2.17251055       0.02876929      -0.06523041      -0.42140545
C       -0.18926080       2.07858835       1.25247297       0.01357392       0.04013447      -0.05831218
H       -1.27271772       1.98390307       1.14769433       0.02549959      -0.06363135       0.09618855
H        0.18549236       1.44797436       2.06911959      -0.04934881       0.07430992      -0.07064023
H        0.05613725       3.13125830       1.42622765      -0.05238538       0.02700037       0.02280354
C       -0.09819476       2.16917208      -1.22230246      -0.00166774       0.05758129       0.05278555
N       -0.57816199       2.65324575      -2.15114820       0.02451016      -0.01395695       0.00296925
