13
Properties=species:S:1:pos:R:3:forces:R:3 Coordinates=T from=T ORCA-job=T run=T Energy:=T 93.6756256=T energy=-148776.4914544743 pbc="F F F"
C        0.10952782      -0.14339776       0.19423123      -0.02103416      -0.01718435       0.07291841
H        1.52836845       1.40809273       0.26348093       0.07197744      -0.10221032       0.09325929
Br      -1.75112248      -0.47993276      -0.31808023       0.15656103      -0.09591002       0.03537265
Br       3.35146003       0.71153025      -1.38627998      -0.08645639       0.03213890      -0.02270451
C        0.43473434       1.36021362       0.16335170       0.01663423       0.07353069       0.08313363
H        0.76843031      -0.59657689      -0.55485628      -0.16729728      -0.02717807       0.02816196
C        0.33176061      -0.74396579       1.50504379      -0.05918467      -0.14785703      -0.05751463
N        0.45899553      -1.21343642       2.54610553       0.09899323      -0.01142486       0.03931590
C       -0.14843258       2.06354201       1.31622027      -0.12157625      -0.05753405       0.17411461
N       -0.57299922       2.55963683       2.26518274       0.01528909       0.06785088      -0.27099300
N        0.07886416       1.89785416      -1.12491845       0.01678507       0.17071391      -0.05520512
H        0.93834888       2.09153619      -1.62981920      -0.08299188       0.08135112      -0.07446742
H       -0.53497367       2.69684451      -1.06848201       0.16737733       0.02061529      -0.05417051
