15
Properties=species:S:1:pos:R:3:forces:R:3 Coordinates=T from=T ORCA-job=T run=T Energy:=T 161.8771913=T energy=-36348.73016749203 pbc="F F F"
C        0.91420678      -0.01581986       0.07017782       0.04194260      -0.09713526      -0.08829898
H        1.78264300       1.95124865       0.25822211       0.02278914       0.01785186      -0.02755829
Cl      -2.35306088      -0.30269135      -0.24214429      -0.00397896      -0.04889967       0.01673571
Cl       2.30278633      -0.54511798      -0.95406306      -0.01917370       0.03964711      -0.00585418
C        0.79362155       1.50473118       0.12538133       0.05332658      -0.01667629       0.00684273
H       -0.01955826      -0.43815932      -0.33563891       0.01258615      -0.00664320       0.02145515
C        1.16325958      -0.55138075       1.40864742      -0.02962028      -0.02237993      -0.01531097
N        1.40274647      -0.96655533       2.45330277      -0.02477585       0.02294606       0.01666826
C       -0.15949501       1.98287448       1.20982462      -0.00398055       0.01479083      -0.00662652
H       -1.09876758       1.42818396       1.14598189      -0.05739236       0.05540545      -0.01531487
H        0.29030846       1.82984457       2.19318626       0.01662046      -0.02165718      -0.01938015
H       -0.33749508       3.04661448       1.06694812      -0.04412976       0.04983616       0.03746358
N        0.35101049       2.05988525      -1.22401633       0.08465469       0.05602017      -0.01345306
O        0.20964213       3.26765175      -1.25622990      -0.00978785      -0.04832965      -0.01853383
O        0.23562576       1.32147970      -2.16690649      -0.02997085       0.02052755       0.10880701
