14
Properties=species:S:1:pos:R:3:forces:R:3 Coordinates=T from=T ORCA-job=T run=T Energy:=T 104.1093565=T energy=-23487.62596840895 pbc="F F F"
C        0.94022947      -0.00021765       0.03293453      -0.00462101      -0.00832294      -0.03288089
H        1.83533373       1.89539217       0.39080661       0.02843788       0.01886297      -0.00191854
Cl      -2.33708947      -0.55665863      -0.22185554       0.02057449       0.00966328       0.02614569
F        1.92923069      -0.33736895      -0.88738674      -0.02653224       0.01415122       0.01459874
C        0.83918263       1.52566050       0.12042228       0.02575254       0.00484244       0.04684905
H       -0.02508759      -0.43826142      -0.27022106       0.02941563       0.02401789       0.03037763
C        1.34828842      -0.53264320       1.34659497      -0.00163695      -0.04016134      -0.01610387
N        1.68759484      -0.91259193       2.37715973       0.00824446      -0.00698924      -0.05373811
C       -0.17591576       1.95947243       1.18654853      -0.01895641       0.04271049      -0.00364100
H       -1.10174724       1.38363043       1.09146614       0.01254272       0.02733900      -0.06028466
H        0.25170873       1.80417397       2.18031351      -0.04347332      -0.06530257      -0.00638095
H       -0.40290849       3.02064513       1.08058907      -0.01346996       0.05466570      -0.01328144
C        0.55953271       2.11787404      -1.19607712       0.02326443      -0.02902240       0.10711238
N        0.41754265       2.67961354      -2.18851599      -0.04726995      -0.03494566      -0.04437523
