13
Properties=species:S:1:pos:R:3:forces:R:3 Coordinates=T from=T ORCA-job=T run=T Energy:=T 72.5237743=T energy=-27982.314297676516 pbc="F F F"
C       -0.00437786      -0.07328923       0.09126881       0.01045363       0.01021261       0.00819829
H        2.14242277       1.00547671      -0.03639701      -0.00063379       0.01202959       0.01064020
Cl      -1.81566233      -0.50904776      -0.00208457       0.03168971       0.00961291      -0.00341106
F        2.94616842       0.54217004      -0.23036785      -0.00489304      -0.00220736       0.00194704
C        0.28887605       1.36856704       0.08735122      -0.01161599      -0.00239054      -0.00912242
H        0.40970499      -0.52350006      -0.80817620      -0.03908459       0.00214095       0.00188702
C        0.51568585      -0.76194535       1.27196106      -0.00274554      -0.03040454       0.02161097
N        0.91510289      -1.32966130       2.18759043       0.00620967       0.01806156      -0.01009528
C        0.01123379       2.16379386       1.22963130      -0.01963671      -0.02114218       0.00998561
N       -0.18485476       2.76641020       2.19556500       0.00657425      -0.00393443      -0.01631124
N        0.11974631       2.01082433      -1.17191544       0.02181015      -0.00807141      -0.00118930
O        0.07443398       3.23205514      -1.20500335       0.00543666       0.01654876       0.00014069
O        0.07366509       1.30661260      -2.17831033       0.00902471      -0.00317692       0.00463892
