12
Properties=species:S:1:pos:R:3:forces:R:3 Coordinates=T from=T ORCA-job=T run=T Energy:=T 30.5647475=T energy=-31220.188452870567 pbc="F F F"
C        0.95800445      -0.03190281       0.10513147      -0.00062809      -0.00042469       0.00166335
H        1.51485216       1.98271881       0.61211471       0.00890184       0.00890759       0.00457767
Cl      -2.30903307       0.08981621      -0.81763957       0.01155977       0.01296357      -0.00546218
Cl       2.45211618      -0.39041521      -0.83809866      -0.01465387       0.01197318      -0.01024883
C        0.65677808       1.46451802       0.16971327       0.01058550      -0.00496211      -0.00455150
H        0.11789021      -0.52320671      -0.39626786       0.00855624      -0.03114952      -0.00164760
H       -0.20113008       1.55422794       0.85337604       0.00278287       0.00339933      -0.01570317
C        1.13001365      -0.59373370       1.44541485       0.00197075       0.04469540       0.02075362
N        1.28175774      -0.99778868       2.51126525      -0.01084192      -0.01811956      -0.00657645
N        0.39757944       1.97315759      -1.16331320       0.00227554      -0.00946787       0.01485530
H        0.27562561       2.97717579      -1.11124266      -0.00885453      -0.01133313       0.00788078
H       -0.50024193       1.58261052      -1.45464010      -0.00737611       0.01124154       0.00498998
