13
Properties=species:S:1:pos:R:3:forces:R:3 Coordinates=T from=T ORCA-job=T run=T Energy:=T 179.5080437=T energy=-95311.56132186214 pbc="F F F"
C        0.90921670      -0.07866479       0.07437596       0.00450579      -0.00437584      -0.00659553
H        1.75588165       1.90137822       0.18703562      -0.01405321       0.01371323       0.01824294
Br      -2.31882417      -0.13472440      -0.49997319       0.00442205      -0.00682156       0.01220347
Cl       2.40906729      -0.53866448      -0.80331740       0.00066091      -0.00048736      -0.01017408
C        0.76103328       1.45079998       0.10847017      -0.00618173       0.00609689      -0.00628298
H        0.02749571      -0.49761142      -0.43753205       0.00393823      -0.01179234       0.00849164
C        1.00469622      -0.63018559       1.42379243       0.00599328      -0.01406628       0.02476938
N        1.12744487      -1.07227409       2.47707084      -0.01017435       0.00536104      -0.02442849
C       -0.03593393       1.96853614       1.21964151      -0.00548014       0.01229605      -0.02621013
N       -0.52835012       2.42639669       2.14952147      -0.00364298      -0.00336216       0.00971915
N        0.23612704       2.00697186      -1.21588776       0.00672741       0.00793500      -0.00104692
O       -0.24810086       3.10930185      -1.16363095       0.01230690       0.00876125      -0.00326942
O        0.45739922       1.36102240      -2.20467966      -0.00500418      -0.00874290       0.01264807
