14
Properties=species:S:1:pos:R:3:forces:R:3 Coordinates=T from=T ORCA-job=T run=T Energy:=T 164.4552620=T energy=-26979.2051416706 pbc="F F F"
C        0.87448167      -0.00074524       0.14888251       0.01178861       0.04163861      -0.01531044
H        1.88137426       1.87635434       0.33326901       0.03548004       0.02848929       0.04081289
Cl      -2.08397065      -0.06892342      -1.48919550      -0.04422599       0.01159525       0.01858660
F        1.98669062      -0.35494038      -0.61099465      -0.01387405      -0.01079148      -0.02151378
C        0.85649529       1.53785572       0.15246476       0.04017420       0.02665363      -0.03116985
H       -0.02960503      -0.37467990      -0.35361998      -0.01228396       0.03159466      -0.01351598
C        1.01896535      -0.68613896       1.44124934      -0.01950808      -0.09509676       0.11240313
N        1.13470496      -1.34511416       2.37589164       0.03238495       0.05896206      -0.07727968
N        0.14124350       2.13716188       1.41490839      -0.03361489      -0.02902772       0.00464766
O       -0.63587047       3.04302846       1.23272619       0.01279337      -0.05720717      -0.02159633
O        0.51068348       1.73581951       2.49692563      -0.01437824       0.03922555       0.03984171
N        0.34486590       2.01051000      -1.05715362       0.03076250      -0.00023910      -0.05070984
H        0.24743406       3.01485757      -1.07230691       0.01899641      -0.01936497       0.02273711
H       -0.53940916       1.55804392      -1.30769010      -0.02145630      -0.01759926      -0.02152362
