14
Properties=species:S:1:pos:R:3:forces:R:3 Coordinates=T from=T ORCA-job=T run=T Energy:=T 51.9286321=T energy=-90816.88533326035 pbc="F F F"
C        0.22790185      -0.11189479       0.08812838      -0.02395875      -0.02010810      -0.00413338
H        1.61292051       1.44560280       0.07054493       0.03072891      -0.03741868      -0.01037144
Br      -1.67774552      -0.50312146      -0.21381465       0.01153129      -0.03254138       0.00333173
Cl       3.34099052      -0.14691692      -0.65764681      -0.01042996       0.01109247      -0.02446617
C        0.51442108       1.39882351       0.07813905       0.00745287      -0.00709337      -0.01245732
H        0.79112495      -0.59308253      -0.71183047       0.02392125       0.01322047       0.00866156
C        0.60433338      -0.71475099       1.36446779      -0.01198350       0.01456735       0.02909103
N        0.83414903      -1.16091273       2.39867364      -0.01236470      -0.00271753      -0.01812732
C       -0.06358554       2.15187606       1.27479874      -0.00137526       0.01092658       0.00174836
H       -1.15220276       2.06293935       1.31319405      -0.00659772       0.01818713       0.00573834
H        0.35479955       1.75051424       2.20006865      -0.00907944       0.00291469       0.00823469
H        0.19661082       3.20952272       1.21115107      -0.00612419       0.02420275       0.01138081
C        0.05642130       2.00040614      -1.17834621       0.00345824      -0.01169873       0.03904058
N       -0.32318170       2.51954060      -2.13116770      -0.00207784       0.02609964      -0.03983205
