14
Properties=species:S:1:pos:R:3:forces:R:3 Coordinates=T from=T ORCA-job=T run=T Energy:=T 96.2206131=T energy=-13680.35289319742 pbc="F F F"
C        0.24301546      -0.07932799       0.21424715       0.00425570       0.00360857       0.02650795
H        1.62119907       1.48498766       0.28195048       0.01374503      -0.00260117      -0.00391887
F       -1.11811606      -0.31068297      -0.03128037      -0.00490453      -0.00076627      -0.00122625
F        2.05118411      -0.09308713      -1.66266149      -0.01790477      -0.00454104      -0.02626280
C        0.53452416       1.42125540       0.18186857      -0.00096896       0.00260331      -0.00971042
H        0.91191033      -0.45627193      -0.62424054      -0.00675759      -0.00290899      -0.00543038
C        0.56998692      -0.70089185       1.50152561       0.00514034       0.03202023       0.00846820
N        0.84615684      -1.20003899       2.50127007       0.00458028      -0.01835018      -0.01297193
C       -0.10548828       2.17114807       1.27017970      -0.00356848      -0.00146463       0.01245304
N       -0.60510404       2.78533389       2.10571300      -0.01594363      -0.00192541       0.00866578
C        0.16835659       1.98347601      -1.19471150      -0.00332059       0.00635416      -0.02071782
H        0.73962689       1.36280882      -1.89477304       0.03548564      -0.01465189       0.00350535
H       -0.90649799       1.91248325      -1.37429053      -0.01222323      -0.02592605      -0.00148019
H        0.47082302       3.03048419      -1.27775668       0.00242415       0.02590403       0.01258614
