15
Properties=species:S:1:pos:R:3:forces:R:3 Coordinates=T from=T ORCA-job=T run=T Energy:=T 55.0643680=T energy=-89812.94834976991 pbc="F F F"
C        0.21373939      -0.08373239       0.06132169       0.04744097      -0.07762580       0.02704459
H        1.55866753       1.47718149       0.03301769      -0.02997952       0.01012467       0.05298864
Cl      -1.52933355      -0.48518217      -0.28033799      -0.00913703       0.03354200       0.00379088
Br       3.51743039      -0.28184880      -0.53332405       0.09478318       0.01906965      -0.05294469
C        0.46299310       1.42607812       0.06573065      -0.03432725       0.02363735      -0.03051551
H        0.81854094      -0.52259942      -0.73553316      -0.08052552      -0.01809553       0.06103116
C        0.55156547      -0.71138113       1.33972242      -0.00805997      -0.01029338      -0.04816911
N        0.74295942      -1.18076072       2.37081957      -0.01476943      -0.01569806       0.05424901
C       -0.07133754       2.15112759       1.30016294      -0.01137258       0.00231614      -0.02876326
H       -1.16006505       2.05393777       1.38235645      -0.02015011      -0.03193134      -0.00870282
H        0.37566973       1.79601307       2.23431816       0.00329073      -0.02738797      -0.08859767
H        0.15915392       3.21463229       1.19417988      -0.00055268       0.05646196       0.09172768
N       -0.02638659       1.97581389      -1.19501977       0.01505434       0.06659970       0.03887142
H        0.35984406       2.90426506      -1.30035719       0.09887467       0.02990675      -0.11882942
H       -1.03370846       2.08679164      -1.16038276      -0.05005402      -0.06127291       0.04125391
