13
Properties=species:S:1:pos:R:3:forces:R:3 Coordinates=T from=T ORCA-job=T run=T Energy:=T 137.4412502=T energy=-145830.3985569373 pbc="F F F"
C        1.01453531      -0.10560726       0.18633925       0.02474294       0.12195033      -0.09994332
H        1.17562845       1.90477003      -0.63161271       0.11253718       0.08488031       0.03815818
Br      -2.16734729       0.29947743      -1.62113514       0.03910611      -0.04897665       0.03162984
Br       2.95214955      -0.34887715      -0.12488232       0.04499694       0.02617430      -0.01574928
C        0.63499389       1.36891081       0.14661287      -0.14503062       0.19807389       0.02685555
H        0.52540868      -0.56069911      -0.67486452       0.02226241      -0.13052412       0.05496277
H       -0.42174803       1.39582611      -0.16610503      -0.06080385      -0.04701847       0.02170119
C        0.65130178      -0.76514019       1.49487046      -0.02145282      -0.05761130      -0.08166091
H        1.23645638      -0.32266916       2.30310442      -0.08717144      -0.08989248       0.11236909
H       -0.41044970      -0.59737247       1.68875145      -0.07438874      -0.01078029       0.00585824
H        0.83670906      -1.83541516       1.46287785       0.02191683      -0.16103514      -0.00884371
C        0.74748125       2.02532846       1.44816085      -0.02436638       0.15168999       0.64686751
N        0.74916009       2.43418204       2.53013506       0.14769027      -0.03874767      -0.71397415
