17
Properties=species:S:1:pos:R:3:forces:R:3 Coordinates=T from=T ORCA-job=T run=T Energy:=T 35.0807206=T energy=-21043.61761564837 pbc="F F F"
C       -0.10762944      -0.08680440       0.03365519       0.00859982       0.00063820      -0.00201263
H        1.51199247       1.23083338      -0.23568221       0.02124245      -0.01098519       0.00459279
F       -1.51736853      -0.00392694       0.24008722      -0.03193933      -0.01873021       0.01122817
Cl       3.76218487       0.65307151       1.01479813       0.00774693      -0.00515696       0.00617591
C        0.43571678       1.32724823      -0.05552216       0.01254850       0.01097979       0.00879193
H        0.00396116      -0.55488096      -0.94884206       0.01068387       0.00177276      -0.01957265
C        0.48905581      -0.94765753       1.11858591      -0.00457923      -0.00135376       0.00946002
H        1.58124157      -0.94513599       1.03741754      -0.00731342       0.01481279      -0.00291579
H        0.23571234      -0.55857240       2.10798085      -0.03271629       0.00854233      -0.00114154
H        0.10680829      -1.97034200       1.04378536       0.00253629      -0.00183934      -0.00120154
C        0.24965638       2.10845254       1.24503726       0.00203343      -0.00430897      -0.01267799
H       -0.81159684       2.15827962       1.52035086       0.03077616      -0.00065884       0.01673584
H        0.81907050       1.65482044       2.06069823       0.00441584       0.02580898      -0.03119069
H        0.62793442       3.12944119       1.12501799      -0.01128289      -0.02612932      -0.00676824
N       -0.17968439       1.96610275      -1.22729198      -0.00211551      -0.00072383       0.02911284
H        0.22874276       2.88603020      -1.34789271      -0.01884593      -0.00743804       0.00379564
H       -1.16610163       2.10523457      -1.03247210       0.00205308       0.01781875       0.00261570
