14
Properties=species:S:1:pos:R:3:forces:R:3 Coordinates=T from=T ORCA-job=T run=T Energy:=T 21.7588879=T energy=-77495.41575535494 pbc="F F F"
C        1.04673565       0.04570561       0.06577126      -0.00499052      -0.02200489       0.00790381
H        1.57341402       2.13401177       0.34455469       0.02477023       0.00301569       0.03359495
F       -1.53514908       0.01177403      -0.59297213       0.00680100      -0.00555154       0.03234413
Br       2.97685067      -0.21888595      -0.41609314      -0.00586466      -0.00164358       0.01494230
C        0.69829715       1.53168789       0.07013480       0.02542858      -0.04798794      -0.02171969
H        0.47114649      -0.42232142      -0.72861138       0.03237391       0.01517327      -0.02378224
H       -0.06356074       1.65939281       0.85357823      -0.02195035      -0.02078772       0.02758656
C        0.73325797      -0.66873587       1.36140823      -0.00344739       0.01874348      -0.02683954
H        1.10718781      -1.69768626       1.35374121      -0.04334696       0.04625603       0.01953321
H        1.13677378      -0.15503093       2.24352613      -0.01306858      -0.00930629      -0.04843320
H       -0.36250259      -0.68230009       1.38334581       0.03866140       0.02830583      -0.00520757
N        0.19864064       1.90377980      -1.24560430       0.00409011       0.00637361      -0.03728904
H       -0.09753002       2.87399223      -1.21666818      -0.03056318       0.01676954       0.01906202
H       -0.65571907       1.31213638      -1.29889152      -0.00305459      -0.01943094       0.00389005
