12
Properties=species:S:1:pos:R:3:forces:R:3 Coordinates=T from=T ORCA-job=T run=T Energy:=T 0.8548848=T energy=-143320.3039685807 pbc="F F F"
C        0.98267436      -0.07174156       0.00435679      -0.00888625      -0.00538201      -0.00881467
H        1.66268826       1.83783626       0.76570510      -0.01442760       0.00623208      -0.01005112
Br      -2.58533849       0.08126190       0.03467260      -0.00551876       0.01696894       0.01445443
Br       2.72933929      -0.62245505      -0.78849976       0.01466367       0.00074704       0.00553144
C        0.91506470       1.43665903       0.07237154       0.00231535      -0.01469933      -0.00166465
H        0.23603018      -0.44436381      -0.69412260       0.00291428      -0.01366639      -0.02154204
H       -0.09238436       1.69296829       0.41559648       0.00765275       0.01915007      -0.01813710
H        1.06428058       1.88606656      -0.91181840       0.00017552       0.02451253       0.01422739
C        0.80738288      -0.73920689       1.34915301       0.00499380       0.00356251      -0.01477757
H        1.55288496      -0.38494709       2.06983000      -0.01425922      -0.01534204       0.00062434
H       -0.20073289      -0.49067456       1.69619723       0.00726538      -0.02589751       0.00459419
H        0.88130368      -1.82558742       1.26567159      -0.00089063      -0.00110248       0.02879571
