17
Properties=species:S:1:pos:R:3:forces:R:3 Coordinates=T from=T ORCA-job=T run=T Energy:=T 36.2209310=T energy=-78566.919801491 pbc="F F F"
C        0.84934399      -0.08669775       0.01048930       0.00364066       0.01773081      -0.00637340
H        1.84464115       1.77155943       0.10703269       0.04044644      -0.02156642      -0.00575964
Br      -2.93118304       0.29346769      -0.35629207       0.01703819       0.00120865      -0.01146309
F        1.95781481      -0.46550686      -0.77721837       0.04915324      -0.02225079      -0.02250706
C        0.79919968       1.43903099       0.03338699       0.00340000       0.02472559      -0.01109093
H       -0.04144193      -0.47241229      -0.49208418      -0.02748312       0.00293562       0.00517155
C        1.00724836      -0.74960270       1.35809515      -0.01024876      -0.00518637       0.00482803
H        1.83347797      -0.31015502       1.92724815       0.02226446      -0.01355443       0.00707393
H        0.08212383      -0.65153601       1.92834856      -0.01208251      -0.00153963       0.05158311
H        1.20913963      -1.81311533       1.21336627       0.01296947      -0.02447146       0.01157705
C        0.02282910       2.00489155       1.22799297       0.00634806       0.00702473       0.00263573
H       -1.00822109       1.63751978       1.22239773       0.00324670       0.03197544      -0.01415000
H        0.49064391       1.75728872       2.18773701       0.00548451      -0.01816741       0.00202011
H        0.00080577       3.09869132       1.15083306      -0.03770521      -0.01732559       0.00684659
N        0.27906122       1.87972429      -1.25984406      -0.01201233       0.01676640      -0.03961253
H        0.22554776       2.89272521      -1.27212998      -0.00494586      -0.00434849       0.02740956
H       -0.68289590       1.54552391      -1.32994876      -0.03812215       0.01711199      -0.00410297
