17
Properties=species:S:1:pos:R:3:forces:R:3 Coordinates=T from=T ORCA-job=T run=T Energy:=T 33.8221703=T energy=-79925.15302055623 pbc="F F F"
C        0.78615947      -0.07380161      -0.06398240      -0.04589070      -0.02359916       0.06190234
H        1.94190240       1.73665277       0.13935945       0.01456775       0.05795618       0.02823252
Br      -2.79758606      -0.42317665       0.47637238      -0.00874739       0.00272505       0.05261907
H        1.57596394      -0.44981940      -0.71626500       0.04681164       0.11639534      -0.11352373
C        0.88565142       1.45027749       0.05290817       0.01164091      -0.01201389       0.15194435
H       -0.17491052      -0.33043692      -0.51595618      -0.06556445      -0.02067582       0.04096507
C        0.87139897      -0.74094582       1.30932852       0.11140478      -0.04389639       0.00634736
H        1.60414387      -0.23895623       1.95582414      -0.01388111      -0.11748567       0.03320398
H       -0.10634410      -0.74125566       1.79532053      -0.00978248       0.12809522       0.02072492
H        1.17728852      -1.78690607       1.21786218       0.00385477      -0.00358498      -0.07571249
C        0.08066294       2.04123805       1.20003095      -0.03843294       0.00972776      -0.02471753
H       -0.91102615       1.57562799       1.23685445       0.01523937       0.07479413       0.00925211
H        0.60322154       1.85186597       2.14461097      -0.10280767      -0.05429969      -0.09868760
H       -0.02554727       3.11984686       1.08769362       0.00287395      -0.00814299      -0.03297897
N        0.50607549       2.10229276      -1.27211460      -0.06522717      -0.05532711      -0.02456216
O       -0.05546348       3.17662820      -1.26336728       0.07907626      -0.04345438       0.01261392
O        0.85391972       1.52515974      -2.28074884       0.04232245      -0.00017849      -0.05425978
