14
Properties=species:S:1:pos:R:3:forces:R:3 Coordinates=T from=T ORCA-job=T run=T Energy:=T 23.3781605=T energy=-11524.548312518182 pbc="F F F"
C        0.56316354      -0.20395725       0.26048699       0.00676942      -0.00243813      -0.00506641
H        1.58642599       1.77980800       0.25501850       0.00188375      -0.01859586       0.02267094
F       -0.33334583       1.68145852      -2.05446540      -0.01272558      -0.01328521       0.01884901
H        1.09943730      -0.48190588      -0.65515114      -0.00668643      -0.00868260      -0.02343288
C        0.61688019       1.29824669       0.36913907      -0.00214831       0.01552005       0.00733359
H       -0.47428549      -0.51963656       0.10714277      -0.00311472       0.02461631       0.02248376
H       -0.06133762       1.66074500      -1.09275089       0.01561521      -0.01026501      -0.01611862
C        1.14572239      -0.96354886       1.45626306       0.01326555      -0.01107819      -0.00015730
H        2.20707575      -0.73027762       1.59688192       0.01960245       0.03930496      -0.00603629
H        0.61108386      -0.67790053       2.36535660      -0.00877398      -0.01174205      -0.00221914
H        1.06041883      -2.05112171       1.33605378      -0.02841425      -0.02435249      -0.00140620
N       -0.07421154       1.86994923       1.43274718      -0.02363230       0.01418019      -0.03639250
O        0.21179420       3.01955186       1.80183955       0.01404890       0.03207161       0.00404539
O       -1.00478748       1.23943911       1.97028171      -0.01462195      -0.03582664       0.00929567
