14
Properties=species:S:1:pos:R:3:forces:R:3 Coordinates=T from=T ORCA-job=T run=T Energy:=T 8.7095974=T energy=-78855.56383114992 pbc="F F F"
C        0.87882459      -0.14190576      -0.14667383      -0.00739015       0.01542390      -0.00672156
H        1.04113048       1.88954238       0.67271537       0.03774153      -0.02472940       0.00974184
Br      -2.66241038       0.33462277       1.36522696       0.00992195      -0.00208502       0.00548595
H        1.83054766      -0.22682722      -0.68720973       0.00036125       0.00342024       0.01931885
C        0.46534451       1.31793395      -0.05441571      -0.00263958       0.00698284       0.00445430
H        0.12475665      -0.67850891      -0.72592796       0.00466604       0.01089342      -0.01858732
H       -0.60269259       1.38925847       0.19835025      -0.00029945      -0.00664425      -0.00216893
C        0.99190871      -0.75481526       1.24516923       0.00022900       0.00820023      -0.01217763
H        1.75180234      -0.23936124       1.84490514      -0.00354998      -0.01233704       0.00671575
H        0.03042137      -0.68805922       1.76271122       0.01008591       0.00017943      -0.01219715
H        1.27818059      -1.80912943       1.17561449      -0.01450781       0.00491432       0.02946607
N        0.66307270       2.03278104      -1.35001862      -0.01813032      -0.00575168      -0.00871789
O        1.10477465       3.16588221      -1.31060027      -0.02165552       0.00848703       0.00330264
O        0.36377073       1.45441151      -2.37388546       0.00799133      -0.00808627      -0.01582886
