16
Properties=species:S:1:pos:R:3:forces:R:3 Coordinates=T from=T ORCA-job=T run=T Energy:=T 43.9732459=T energy=-35345.40925765994 pbc="F F F"
C        0.06358473      -0.07580716       0.10000685      -0.01302556       0.02779282      -0.02018618
H        1.61631678       1.33433340       0.15195616       0.01063607      -0.02355284       0.02145220
Cl      -1.74034848      -0.16840601      -0.17082904      -0.00056996       0.02448044       0.04739923
Cl       3.48765864      -0.05977575      -0.45577124       0.01663951       0.02318490       0.00023850
C        0.52533142       1.37830348       0.04182886       0.00175573       0.01401934       0.03437385
H        0.51120466      -0.52619338      -0.78400947      -0.00327870       0.02595276      -0.02649255
C        0.44998212      -0.86956991       1.32861793      -0.01273659       0.00370597      -0.03074338
H        1.53899123      -0.82426570       1.41950827      -0.01237193      -0.01161948       0.00319341
H       -0.01011806      -0.48244959       2.23725921      -0.01284881      -0.00081933      -0.00462412
H        0.15108804      -1.91039888       1.18961241       0.01314029      -0.03297046      -0.00165331
N        0.00862827       2.15331595       1.28228796      -0.02087610       0.00053974       0.01338716
O       -0.79476400       3.04566087       1.10114419      -0.01913269       0.02267157      -0.02913613
O        0.43944183       1.83511960       2.36885540       0.04048908       0.01321484      -0.00270856
N        0.16959177       2.02802056      -1.16324518       0.02559844      -0.07420078       0.00050359
H        0.74581262       2.84082446      -1.31973809       0.04121653       0.02113044      -0.00007784
H       -0.80086568       2.30750731      -1.15793113      -0.06520999      -0.01999351      -0.00460883
