14
Properties=species:S:1:pos:R:3:forces:R:3 Coordinates=T from=T ORCA-job=T run=T Energy:=T 63.5074728=T energy=-81010.31876559515 pbc="F F F"
C        0.05068273      -0.07922473       0.08424946      -0.02216111      -0.02033405       0.01088897
H        2.12329542       1.01084125      -0.09352269       0.00987086       0.02248664       0.00797854
Br      -1.98812829      -0.56037593      -0.06470788       0.01168331       0.00338281      -0.00376548
F        2.98723925       0.60694996      -0.18613693       0.00024984      -0.00369965       0.00795555
C        0.31672986       1.36088353       0.04292696      -0.00739316       0.00291601      -0.00038138
H        0.40608425      -0.55730192      -0.82515270      -0.00266561      -0.03677459       0.00172650
C        0.53990986      -0.78941574       1.33033228       0.00812001      -0.01337934       0.00304318
H        1.62730681      -0.68670526       1.37894681       0.00836059       0.02234922      -0.02000466
H        0.10747044      -0.34338254       2.22880804      -0.00722754      -0.00533962      -0.01145765
H        0.28287506      -1.84918044       1.30727572      -0.01440735      -0.00614836      -0.00182067
C        0.13100683       2.11926932       1.23034310       0.03625484      -0.00871468      -0.00045729
N        0.01958906       2.70810801       2.22054296      -0.01335102       0.03363053       0.03208471
C        0.13965201       2.04355638      -1.19050952       0.01966318      -0.00280539       0.00328999
N        0.03965627       2.58270222      -2.20949085      -0.01765218       0.01541314      -0.03279837
