15
Properties=species:S:1:pos:R:3:forces:R:3 Coordinates=T from=T ORCA-job=T run=T Energy:=T 109.1597291=T energy=-22484.060757855863 pbc="F F F"
C        0.05771928      -0.05146841       0.07394901      -0.02774952       0.01130545      -0.01407931
H        1.61771219       1.34865906      -0.01803487       0.02342086      -0.03322566       0.00224497
F       -1.35509958      -0.04675889      -0.03945172      -0.03796257      -0.00500741       0.00158591
Cl       3.58825677      -0.00221567      -0.35068376      -0.00062685       0.00271183       0.01558513
C        0.52054361       1.39701143       0.04755088       0.00305653       0.00688511      -0.02862868
H        0.44827757      -0.50565395      -0.83855013       0.00356786      -0.06162220       0.03849375
C        0.44251120      -0.81816885       1.31163847      -0.00790590       0.01646301      -0.03593054
H        1.53383911      -0.83672573       1.38339860      -0.01344935      -0.02512830       0.01935454
H        0.00989904      -0.35016672       2.20155675       0.05113795       0.00265115       0.00194684
H        0.06528249      -1.84186499       1.24736517       0.03744919      -0.00809300      -0.03021040
C        0.14677346       2.10052236       1.29641872      -0.05371091       0.04571849       0.00660179
N       -0.16922072       2.68038583       2.23978662       0.00399899       0.02031971       0.00061594
N       -0.00840806       2.04153749      -1.14326643       0.00925656       0.00538662      -0.04375861
H        0.38177351       2.96564551      -1.26059331       0.02715269       0.01703635       0.02803006
H       -1.01474854       2.11676806      -1.08185102      -0.02575879       0.01577582       0.04102120
