17
Properties=species:S:1:pos:R:3:forces:R:3 Coordinates=T from=T ORCA-job=T run=T Energy:=T 37.6184069=T energy=-11235.763288494592 pbc="F F F"
C       -0.00533494      -0.11031043       0.02171805       0.03288460       0.07738838       0.01556160
H        1.57802000       1.24250738      -0.13406765       0.06455314      -0.02864470       0.01349502
F       -1.43011801      -0.08903338       0.20359632      -0.05836304      -0.02581351      -0.07124956
F        2.88235401       0.75167486       1.26499254      -0.00356257       0.00325892      -0.01516864
C        0.48393473       1.31971866      -0.08291204       0.03900013       0.02295547      -0.04063622
H        0.13446998      -0.58491815      -0.95430807       0.01230829      -0.04358940      -0.04110018
C        0.62801802      -0.90889547       1.13162084      -0.06047726       0.00503977      -0.03301736
H        1.71086756      -0.66908486       1.15379658      -0.06415212       0.06468802       0.01046907
H        0.22664440      -0.57140687       2.09232117      -0.03601711      -0.03344346       0.01594842
H        0.39541439      -1.97259115       1.00924305       0.06705626      -0.05107206       0.04719893
C        0.20259150       2.10091799       1.19514747       0.01979609      -0.02350567       0.01646234
H       -0.85021894       2.00731632       1.49541141       0.07649847       0.07530665       0.07815053
H        0.88915431       1.71436669       1.94992540       0.05899226       0.00856070       0.04413677
H        0.44805007       3.16158635       1.05233061      -0.06831571      -0.02013785      -0.01630682
N       -0.07140526       1.91712267      -1.30751255      -0.01610678       0.03435480      -0.02995907
H        0.31411690       2.85153844      -1.40506332      -0.01311941      -0.04949298       0.01011222
H       -1.06897607       2.04154648      -1.16571534      -0.06222614      -0.00292080      -0.00919945
