16
Properties=species:S:1:pos:R:3:forces:R:3 Coordinates=T from=T ORCA-job=T run=T Energy:=T 53.2632236=T energy=-21478.815525754624 pbc="F F F"
C        0.51617373      -0.00544909      -0.05447390      -0.02456898       0.00155279      -0.02187624
H        1.07460540       1.67338749      -1.22879480       0.00818326       0.00419795      -0.01502265
Cl      -0.42441324      -0.73788178      -1.46296628       0.02633887       0.02111196       0.02338904
F        2.98797355       0.01673362       1.03158034      -0.00617174       0.01266783       0.02834633
C        0.58349927       1.52239844      -0.25226168       0.00084979      -0.01199391      -0.02300080
H        1.54532344      -0.37983320      -0.09795944      -0.03671163      -0.00202056       0.01952355
C       -0.10165181      -0.44622001       1.25018951       0.00652946      -0.00689899      -0.01262402
H        0.58118341      -0.11257667       2.03250358       0.00643679       0.01623141      -0.02532142
H       -1.10269729      -0.02568941       1.40250165       0.02592683       0.00479426       0.03300455
H       -0.16653566      -1.53604004       1.29771979      -0.01641937      -0.01240118      -0.01919582
N        1.33745913       2.05395751       0.86306082       0.01060203      -0.02366721      -0.04254493
H        1.71135055       2.95576815       0.59005910      -0.01338437      -0.01763397       0.01010360
H        2.13149454       1.38256159       1.03077980       0.02487481       0.02253962       0.01912387
N       -0.69682397       2.22949890      -0.32060517       0.00113854       0.00619580      -0.00061918
H       -1.09026764       2.21448390       0.61434452      -0.01520806      -0.00552697      -0.00881679
H       -1.32955634       1.73306643      -0.94073578      -0.00661271       0.00494709       0.03437324
