16
Properties=species:S:1:pos:R:3:forces:R:3 Coordinates=T from=T ORCA-job=T run=T Energy:=T 78.7383285=T energy=-19346.757258718822 pbc="F F F"
C        0.64295454      -0.11687524       0.09417438       0.00445475      -0.01597501       0.02279439
H        1.89685831       1.62691604       0.07889667      -0.02128868       0.03059546      -0.07079674
Cl      -2.70662939      -0.15161867      -1.19663844      -0.01078427      -0.00732345      -0.01677588
H        1.26835587      -0.51648716      -0.71481064       0.00321557       0.01846350       0.03063617
C        0.81759756       1.40967769       0.06738858       0.03875797       0.00250329       0.04694483
H       -0.39041322      -0.36764636      -0.17101728      -0.02988497       0.03727964       0.06793909
C        1.04294618      -0.73374397       1.42917722       0.03097569       0.00175752      -0.01814985
H        2.00822074      -0.34239060       1.77844702       0.02236172      -0.10144186      -0.01004263
H        0.30430235      -0.49718504       2.20251754       0.03188626      -0.06972555      -0.04611225
H        1.12216631      -1.82355165       1.34731714      -0.03110574       0.07925466       0.06886980
C        0.31639748       2.06171163       1.28826583      -0.04922401       0.06442102      -0.00574721
N       -0.01940834       2.62986150       2.23153549       0.00227731      -0.06580352       0.01857935
C        0.16302539       2.03862897      -1.16532133       0.04759251      -0.01426805       0.01274668
H        0.61714787       1.61921609      -2.06804691      -0.02362301      -0.00647017      -0.00594999
H       -0.90286481       1.78553397      -1.18341183       0.05690325       0.06527150      -0.06233263
H        0.30995509       3.12319869      -1.17452076      -0.07227253      -0.00384356      -0.03125664
