17
Properties=species:S:1:pos:R:3:forces:R:3 Coordinates=T from=T ORCA-job=T run=T Energy:=T 40.4236076=T energy=-18339.15743171511 pbc="F F F"
C        0.60028360      -0.15083120      -0.00486188       0.00583868       0.01173942       0.03319138
H        1.38898556       1.46748115      -1.11275683       0.00599499       0.00017474      -0.01647339
Cl       0.05316746      -1.00068263      -1.53193903      -0.02492899       0.03277154      -0.01346187
H        3.58359246       0.37673539       0.71917568       0.01113840       0.01663342      -0.01077992
C        0.71197105       1.35836140      -0.24901145      -0.00804630      -0.00419513      -0.02029619
H        1.62500217      -0.50012295       0.16425395       0.02347260      -0.01040064      -0.00272185
C       -0.30951600      -0.54765429       1.13582699      -0.01468969      -0.00627897       0.00531642
H        0.04422935      -0.03188297       2.03130967      -0.00546885      -0.02458461      -0.00254511
H       -1.34923005      -0.25889838       0.95246014      -0.01257649      -0.00608478      -0.01103845
H       -0.27857113      -1.62809772       1.29713766       0.02143428       0.00041357       0.03331443
N        1.29404555       1.91357116       0.97018717      -0.01188590      -0.02186643      -0.03819863
H        1.47955583       2.89902598       0.80139344       0.02902025      -0.02563668       0.01076675
H        2.22970947       1.45684417       1.05840837       0.00084201       0.01872432       0.01929439
C       -0.60950771       2.04347969      -0.57052195      -0.00419924       0.00956514      -0.01321518
H       -1.08033557       1.61305467      -1.45905013      -0.02772282      -0.00327609       0.00241139
H       -1.30207518       1.97029835       0.27388097       0.00524627      -0.00153056      -0.00521672
H       -0.44210850       3.10935880      -0.76256659       0.01261723       0.01446094      -0.00424049
