14
Properties=species:S:1:pos:R:3:forces:R:3 Coordinates=T from=T ORCA-job=T run=T Energy:=T 106.5343995=T energy=-24278.289015832743 pbc="F F F"
C        0.80477363       0.04513401      -0.13220706       0.01031620      -0.01121726      -0.00517192
H        1.81831652       1.68987882       0.81135036      -0.00230428       0.01738467       0.01541164
Cl      -1.98825503      -1.56804046       1.04687976      -0.01805721      -0.01905851      -0.00716031
H        1.54558459      -0.16844303      -0.90867068       0.00082646      -0.02915024      -0.03486448
C        0.94865497       1.54729555       0.17114032       0.00061198       0.01005324       0.00357957
H       -0.19785197      -0.14341380      -0.53917706      -0.00378388       0.00089065      -0.00244719
N        1.08973167      -0.72107384       1.06286722       0.01380562      -0.00669181       0.01317242
H        1.42112334      -1.63367744       0.77485171       0.00052744      -0.01408463       0.00128687
H        0.18518659      -0.92360958       1.49823109       0.00321210      -0.00678789       0.00313733
N       -0.23655147       2.04375782       0.97577338       0.00956580       0.03092714      -0.00869721
O       -1.21492839       2.39222741       0.36074140      -0.00297058      -0.01939528       0.00488329
O       -0.10223658       2.04330532       2.17575028       0.00636490       0.01880815      -0.00079749
C        1.07086284       2.35065347      -1.04550367      -0.04521883       0.01180013       0.00903523
N        1.23272279       2.95368080      -2.01003786       0.02629682       0.00118846       0.00663726
