13
Properties=species:S:1:pos:R:3:forces:R:3 Coordinates=T from=T ORCA-job=T run=T Energy:=T 75.2905897=T energy=-23923.444173473472 pbc="F F F"
C        0.00399681      -0.15692097       0.01341168      -0.04488165      -0.00009116       0.03499459
H        2.01746042       1.08200215       0.16523249       0.03377054       0.08830002      -0.12243718
Cl      -1.88976828      -0.41409900       0.11993917      -0.07079844      -0.05603099       0.10897844
F        2.92721586       0.77517543       0.38483425       0.25941152      -0.11411128       0.10780923
C        0.38706319       1.27728072       0.00719425      -0.31557332       0.03893038      -0.03036610
H        0.13981005      -0.58731326      -0.98347755       0.21373899       0.03448501       0.10522210
N        0.58784328      -0.85867181       1.10174643      -0.01131847       0.03525012       0.11564023
H        1.52542530      -0.51513627       1.28024233      -0.07634670      -0.13563658      -0.09804751
H        0.56973694      -1.86255306       0.99167504       0.00778319       0.10103896      -0.06356492
C        0.14040769       2.05816099       1.17918277       0.12850188      -0.08006505      -0.04387234
N        0.02384072       2.72715939       2.11380758      -0.07571757       0.00039085       0.09486073
C        0.13962687       1.95142109      -1.21958475      -0.09682237       0.04441416      -0.15616072
N       -0.04516798       2.46241879      -2.24044003       0.06108900       0.05103176      -0.04483652
