15
Properties=species:S:1:pos:R:3:forces:R:3 Coordinates=T from=T ORCA-job=T run=T Energy:=T 59.1546371=T energy=-13467.759078181918 pbc="F F F"
C        1.24370404       0.10533945       0.25450528      -0.00534835      -0.00764746       0.00452395
H        1.81099531       2.14730905      -0.20251650       0.01246019       0.00733580       0.01589669
F       -1.43137742      -0.49837459      -1.12887553      -0.00259645       0.00255922      -0.01184478
H        2.15674497       0.07394488       0.85714069       0.03442017      -0.01928216      -0.02363996
C        0.89832576       1.57292183       0.01794807      -0.00050651       0.00775584      -0.02402396
H        1.46004198      -0.31683069      -0.74039890      -0.02269377       0.00212337       0.00123387
N        0.15831545      -0.55439500       0.95892434      -0.00757304      -0.00939231       0.02138854
H        0.45493306      -1.49844857       1.17937228       0.00004387       0.00642556       0.02918054
H       -0.61758706      -0.64220850       0.26438552       0.01489923      -0.01175689      -0.00845987
N        0.55951118       2.16662936       1.42769170       0.01290133       0.00955549      -0.01108245
O       -0.51629151       2.69273835       1.59783541       0.02800202      -0.00867220       0.01684678
O        1.44833945       2.13514373       2.25680408      -0.03441070       0.01577475       0.02293330
N       -0.11309564       1.76320037      -0.93586609      -0.03187504       0.00958418      -0.00531398
H       -0.63899357       2.60661398      -0.75741886       0.00378490       0.00963915      -0.00038415
H       -0.74957009       0.92920535      -1.03253532      -0.00065115      -0.01565032      -0.01536263
