13
Properties=species:S:1:pos:R:3:forces:R:3 Coordinates=T from=T ORCA-job=T run=T Energy:=T 14.2640532=T energy=-77933.41937129045 pbc="F F F"
C        0.34592840      -0.18131432       0.10639889      -0.03236892       0.01579855      -0.00337776
H        1.58188264       1.52648659       0.30214148       0.02099551      -0.01646892      -0.01195495
Br      -3.08784735       0.94718812      -0.38653623       0.02838507      -0.01709589       0.00586050
F        3.54963999      -0.04179094       1.31693863       0.00671201       0.03107057      -0.00167982
C        0.53872945       1.30122857       0.06160662       0.01184384       0.01127950       0.00934013
H       -0.63386089      -0.52284965      -0.24363791      -0.00093417      -0.04134519      -0.01398638
H       -0.10595692       1.72119150       0.85188896       0.01591028       0.00143615      -0.00915703
N        1.24239409      -0.96792013       0.55029070      -0.02410456       0.00561607      -0.01629476
H        2.71297487      -0.43610222       1.04659754      -0.01711453      -0.00136288       0.00122466
H        0.94288982      -1.93886759       0.52718510      -0.02174486       0.00834564       0.00262156
N        0.19349370       1.78257749      -1.27711143       0.00544785      -0.00561555       0.04886507
H        0.37512079       2.77959911      -1.30925552      -0.03274306      -0.01872715      -0.01056690
H       -0.81929057       1.67686737      -1.37249467       0.03298075       0.01892654      -0.00106079
