13
Properties=species:S:1:pos:R:3:forces:R:3 Coordinates=T from=T ORCA-job=T run=T Energy:=T 63.8013813=T energy=-11959.14801495087 pbc="F F F"
C       -0.01180487      -0.07656352       0.03136931       0.00100418       0.03381860      -0.00037713
H        1.69818768       1.18977992      -0.03045872      -0.02770072      -0.02204315      -0.01455514
F       -1.41673501       0.05022698       0.22773971       0.01254330       0.00860266      -0.00458100
H        3.09508679       0.12470509       0.66935281       0.00793715       0.00896343      -0.01407568
C        0.58534129       1.30850934      -0.02995727      -0.01021505       0.01085748      -0.03690756
H        0.06425910      -0.56287574      -0.94893135       0.00572759       0.02441880       0.01903127
H        0.28302066       1.91633353       0.81894982      -0.00200086      -0.05055434       0.03249103
N        0.57241619      -0.76969109       1.11611483      -0.00852785       0.00030961      -0.00922175
H        1.59808131      -0.55078977       1.12465960      -0.02344669       0.02043145       0.01732763
H        0.47304654      -1.76650416       0.97464839       0.02405465      -0.03894000       0.02564055
N        0.17374609       2.04657096      -1.24448111       0.04524973       0.00748500      -0.01154075
O       -0.11400079       3.22331334      -1.12374525       0.00102872       0.03342318       0.02087993
O        0.19453082       1.46255049      -2.31151877      -0.02366554      -0.02753848      -0.02943364
