13
Properties=species:S:1:pos:R:3:forces:R:3 Coordinates=T from=T ORCA-job=T run=T Energy:=T 24.6647232=T energy=-11961.16715663177 pbc="F F F"
C        0.82837623       0.11981354      -0.18078083      -0.00364050       0.00490424      -0.00747099
H        0.06755412       0.75634777       1.67103684       0.01841310       0.01244602       0.01222039
F       -0.31043560      -0.67381240       2.41878338       0.00760740      -0.01649473      -0.00634368
H        1.40520019       0.46294040      -1.05268296       0.00190578       0.01770192      -0.02258139
C        0.66590190       1.23257151       0.83965987       0.00686810       0.00407346       0.00141042
H       -0.17440563      -0.15745321      -0.52971339      -0.02067843      -0.01349190       0.00479110
H        1.62394818       1.57779733       1.22556989      -0.01853304       0.03352350       0.00921159
N        1.53260025      -0.95775171       0.51139498       0.01884074       0.00354853       0.01113507
H        1.46954087      -1.79551031      -0.05739650      -0.00778362       0.00595670       0.00162807
H        0.94195502      -1.11515851       1.35532686      -0.01270031      -0.01690633       0.00404552
N       -0.03554278       2.42152742       0.31966458       0.01385136       0.00263995      -0.02365153
O       -0.90340424       2.27430974      -0.52417732       0.02999597      -0.01029755       0.01487739
O        0.26078189       3.50991813       0.78625703      -0.01303065      -0.02107064      -0.00441505
