15
Properties=species:S:1:pos:R:3:forces:R:3 Coordinates=T from=T ORCA-job=T run=T Energy:=T 58.3109746=T energy=-12676.879712555727 pbc="F F F"
C        0.04208905      -0.10488675       0.13003453      -0.01202051      -0.01194919       0.01284448
H        1.61756921       1.21079692       0.09224361       0.01729824      -0.02201189      -0.02691761
F       -1.37075883      -0.14662559       0.21403828      -0.02506090      -0.00324449       0.01514034
F        2.86692824      -0.05971182       0.12166899       0.00352026       0.00948958       0.00708543
C        0.51247241       1.34208437       0.04766208       0.00162661      -0.01124836       0.00174887
H        0.27356205      -0.58406908      -0.83346834      -0.00648009       0.01554555       0.00342301
N        0.62581905      -0.73853510       1.25837102       0.00217871      -0.01532033       0.00027555
H        1.65167268      -0.60608267       1.05733131       0.00642001       0.00386761       0.01048544
H        0.43177055      -1.73286169       1.20629898      -0.00066044      -0.01012584      -0.01439817
C        0.05161154       2.12149433       1.19724843      -0.01308561       0.00179226      -0.02406662
N       -0.31342949       2.80518204       2.04925791       0.00526116       0.00469483       0.00582571
C        0.07861893       2.01111698      -1.25495954       0.00316520       0.00589446      -0.00106918
H        0.52472662       1.48107994      -2.10105184       0.00942777       0.00253615       0.00357842
H       -1.00989065       1.99215610      -1.36475698       0.00072622      -0.00650694      -0.00049760
H        0.41148036       3.05109510      -1.29619786       0.00095088       0.01465324      -0.00347076
