12
Properties=species:S:1:pos:R:3:forces:R:3 Coordinates=T from=T ORCA-job=T run=T Energy:=T 49.9281993=T energy=-21413.262056029824 pbc="F F F"
C        0.16180910      -0.09899687      -0.02112412      -0.02395182       0.04199424      -0.07798939
H        1.80878757       1.23701625      -0.08649279      -0.31913773       0.01048638       0.14980191
Cl      -1.89553261       0.14295232       0.70533567      -0.44981366       0.25665249       0.05814464
F        2.79142243       0.35278647       1.21443905       0.53156159       0.18658756       0.27467332
C        0.70242006       1.32370925      -0.11655704      -0.23915938      -0.19042662      -0.00929930
H       -0.23923684      -0.49833627      -0.93658315      -0.11831449      -0.13246632      -0.28300275
H        0.40064017       1.92090558       0.74729245       0.09867755      -0.15327572       0.02029175
N        0.80579318      -0.89142561       0.79480578       0.39950281      -0.27871215       0.12762801
H        1.71006332      -0.42694533       1.20841050       0.40541824       0.07484905       0.08624004
H        0.79333083      -1.88002119       0.62344881      -0.31534890      -0.11117485      -0.03612084
C        0.20966168       1.94328887      -1.33173360       0.20412881       0.00955103       0.13694019
N       -0.13660547       2.39420284      -2.32787338      -0.16897056       0.27340431      -0.44265392
