14
Properties=species:S:1:pos:R:3:forces:R:3 Coordinates=T from=T ORCA-job=T run=T Energy:=T 59.0260102=T energy=-22919.218147029307 pbc="F F F"
C        0.09662133      -0.13877953       0.04466599      -0.03888666      -0.01146213       0.00945452
H        1.63185731       1.20491299       0.07534345      -0.03327386       0.02247488       0.00781388
Cl      -1.78281628      -0.25620318       0.04195890       0.01914743      -0.01438575      -0.00112548
F        2.93833980       0.17463133       0.49699024      -0.00345189      -0.00148627       0.00025581
C        0.51678126       1.32205984       0.02662497      -0.01894888      -0.03024414       0.00893524
H        0.33006691      -0.55922846      -0.93714234       0.00124083       0.04652476      -0.01528370
N        0.64086805      -0.79225730       1.16732279      -0.02478529      -0.01159787       0.00894767
H        1.66674304      -0.51788349       1.12065194       0.02477550      -0.00921641      -0.00802922
H        0.56424610      -1.79495938       1.04590992       0.00950386       0.01085517      -0.00364906
C        0.06837646       2.04168502       1.23648764       0.01928431       0.01579813      -0.02007187
N       -0.28976757       2.70849016       2.10484372       0.02303657      -0.00890597      -0.00765736
N        0.09106686       1.98767375      -1.19882678       0.01553243      -0.02037427       0.03922647
H        0.56865216       2.87689706      -1.27440331      -0.01832745      -0.01271436      -0.00736385
H       -0.90487142       2.17758242      -1.15273892       0.02685518       0.00541958      -0.02718046
