13
Properties=species:S:1:pos:R:3:forces:R:3 Coordinates=T from=T ORCA-job=T run=T Energy:=T 26.0740483=T energy=-14662.306454654545 pbc="F F F"
C        1.16324410      -0.07392527      -0.13257469      -0.00178649       0.01574651      -0.00856313
H        1.07861883       1.95705770       0.58052287      -0.02055161      -0.00843148      -0.01420436
F       -1.40944470       0.16985343       1.42041103       0.00196062      -0.00113991       0.01714407
F        2.53768961       0.09901949      -0.46987827       0.00969721       0.00775950       0.00950505
C        0.50449290       1.28055866      -0.04976458      -0.01511019       0.01383952      -0.01353382
H        0.75916972      -0.63314468      -0.98436624       0.00837520       0.00459126       0.00136525
H       -0.51332713       1.09054521       0.40645995       0.02248444       0.00118536      -0.00358216
N        1.04527924      -0.70322796       1.13212333       0.00198521      -0.00171259      -0.00809794
H        1.14387341      -1.70407233       1.02287206      -0.00358819      -0.02281683       0.00396690
H        0.07235220      -0.49210097       1.46906740       0.00085592       0.01290034      -0.01396050
N        0.35531417       1.94130238      -1.36326072      -0.02340142       0.00307518       0.00417870
O        0.47708219       3.15302833      -1.40310989       0.02348320      -0.02746152       0.00726586
O        0.05960792       1.26567294      -2.33206841       0.02640312      -0.00324341       0.02636617
