15
Properties=species:S:1:pos:R:3:forces:R:3 Coordinates=T from=T ORCA-job=T run=T Energy:=T 88.5831074=T energy=-9975.657428894889 pbc="F F F"
C        1.24454218       0.07034056       0.22132135       0.02005303       0.02487918      -0.00065204
H        1.84847610       2.03133405      -0.44403409       0.01441562      -0.01126272       0.00310907
F       -1.28635054      -0.85106697      -1.09139720      -0.01297115      -0.01168510       0.01587703
H        2.22053913      -0.01499183       0.71867268       0.02570799      -0.03185307       0.02139148
C        0.95719376       1.56712537       0.00314034      -0.01315043       0.03145052      -0.01156896
H        1.32283373      -0.38240909      -0.78015304      -0.00386677      -0.00490072       0.01473414
N        0.19807563      -0.53197722       1.02293903       0.00954040      -0.00243130      -0.02259709
H        0.54808882      -1.40256001       1.40621421      -0.01738225      -0.01990211      -0.02932866
H       -0.54688321      -0.77361811       0.31810710      -0.02623766      -0.00290637       0.00903176
C        0.79528998       2.24027062       1.30177154       0.02831193      -0.01519771      -0.00564896
N        0.73086596       2.82117337       2.29391272      -0.01056668       0.03324108       0.00513297
C       -0.24883734       1.80487277      -0.92043658      -0.03480261       0.01427293      -0.01420429
H        0.08830973       1.72522172      -1.95917089       0.01336367       0.02110395       0.00250710
H       -0.99305569       1.00293814      -0.80884327       0.01254424      -0.04416268       0.00604871
H       -0.67976946       2.79965623      -0.77214959      -0.01023482       0.02904394      -0.00668825
