16
Properties=species:S:1:pos:R:3:forces:R:3 Coordinates=T from=T ORCA-job=T run=T Energy:=T 47.6470277=T energy=-15732.204818635917 pbc="F F F"
C       -0.04498780      -0.15128056       0.04299868      -0.00794818       0.01732965      -0.01212954
H        1.59057506       1.18748554      -0.03501705       0.00360546       0.00122312      -0.00989458
F       -1.44942367      -0.09234757       0.34447640       0.01418932       0.01036279      -0.02846967
F        2.81644055       0.58242037       1.05626494       0.00364306      -0.02624756       0.03115852
C        0.48078039       1.27850701      -0.02183118       0.01009124      -0.00526913       0.01300784
H       -0.03417852      -0.60371231      -0.95401900       0.00284957       0.01392597       0.01677073
N        0.64678319      -0.86511144       1.03996610      -0.01693747       0.01390182      -0.02228253
H        1.59868952      -0.43128832       1.17980398      -0.00861031       0.01841804       0.01567158
H        0.72717323      -1.84059033       0.79476318       0.01614064      -0.02990395       0.00094111
C        0.12228677       2.09695407       1.19641393       0.01172408       0.00129055      -0.00241545
H       -0.95716350       2.17064367       1.34319046       0.01053951      -0.00461346      -0.00697257
H        0.58548909       1.58612938       2.04015381       0.00539834       0.02311733       0.00863099
H        0.55203853       3.09645028       1.12628198      -0.01316769       0.01074350      -0.00574948
N        0.05457571       1.93464085      -1.30101753      -0.01953301      -0.01764018       0.01138215
O       -0.33852422       3.08481649      -1.26993905      -0.01278197      -0.02395481      -0.00366479
O        0.17742550       1.29933200      -2.33326666      -0.03151725       0.00161210       0.01376182
