13
Properties=species:S:1:pos:R:3:forces:R:3 Coordinates=T from=T ORCA-job=T run=T Energy:=T 27.5960206=T energy=-34275.26750994156 pbc="F F F"
C        0.85884257      -0.07083478      -0.16262210      -0.03817972       0.00917159      -0.18055934
H        1.83663892       1.72178116      -0.69084412       0.11338103       0.09468474      -0.04661470
Cl      -2.30135160       0.65946470       1.03950876       0.01893906      -0.01570575       0.03994642
Cl       2.09456688      -0.67914589       0.95925262       0.06453634       0.00951133       0.12396081
C        0.87394059       1.43521396      -0.26590164       0.03291687       0.02118563      -0.10766481
H       -0.11143942      -0.45421173       0.14355856      -0.09038722      -0.01942237       0.06734751
H        0.82104493       1.83748461       0.75203184      -0.18580753      -0.05611484       0.11769342
N        1.17823795      -0.70485460      -1.50895538       0.00192406      -0.08730499       0.13343204
O        2.07954245      -0.22899008      -2.15822730       0.05309647       0.04945446      -0.09371632
O        0.53829978      -1.68589137      -1.80809323      -0.05270645       0.05652539      -0.05598179
N       -0.20018495       1.82962362      -1.16049033      -0.10089030      -0.07216226      -0.06606330
H       -0.24104016       2.83958110      -1.21542020       0.10641700       0.00244195      -0.04677776
H       -1.08658836       1.54097029      -0.73780816       0.07651934       0.02409400       0.11459083
