15
Properties=species:S:1:pos:R:3:forces:R:3 Coordinates=T from=T ORCA-job=T run=T Energy:=T 59.9335893=T energy=-150827.80759558475 pbc="F F F"
C        0.14013187      -0.01996170      -0.23910434       0.02734654       0.05221382       0.03358338
H        1.52280005       1.50041247      -0.58720867      -0.02523657       0.03129036      -0.02304151
Br      -1.70725537      -0.34897538       0.20742014      -0.04422414      -0.06274202       0.00356258
Br       2.90919185      -0.08710327       2.03676825      -0.00222677      -0.02844865      -0.00971778
C        0.48344587       1.46812201      -0.23955992       0.01438143       0.05047840       0.00241427
H        0.76394850      -0.53847772       0.49600638       0.02406812      -0.01869019       0.03094859
N        0.46780183      -0.69166244      -1.56537988      -0.08399916       0.07360004      -0.02436107
O        1.22603005      -0.11782512      -2.31330992       0.01936525      -0.03760825       0.08782121
O       -0.00004397      -1.78911337      -1.76257739       0.01926577       0.00570930      -0.03096547
N        0.33022457       1.96797719       1.12317835       0.00784148       0.00362117      -0.04889814
H        0.73534481       2.89879142       1.14602481      -0.01834247      -0.01087375      -0.01586735
H        0.93182153       1.40948435       1.73567742      -0.00126634       0.00677953      -0.03585735
N       -0.34401345       2.19457091      -1.18833383       0.01802824      -0.02428563       0.00176206
H        0.13515612       3.03190224      -1.49318554      -0.01678883      -0.02896758       0.01224291
H       -1.19609867       2.47593116      -0.71405031       0.06359028      -0.02031146       0.01014768
