13
Properties=species:S:1:pos:R:3:forces:R:3 Coordinates=T from=T ORCA-job=T run=T Energy:=T 49.3097784=T energy=-28526.98607702231 pbc="F F F"
C        0.96490769      -0.05274209       0.14450797       0.00159940      -0.02944859       0.07506287
H        1.31979690       1.97243580      -0.59542845       0.00681180       0.03338808       0.00592990
F       -1.71245405       0.71217324      -0.99303481       0.00127290       0.02409526      -0.01623506
Cl       2.63363793      -0.59337538       0.83812458       0.06975083      -0.00421900      -0.00918971
C        0.72012580       1.36798252       0.06924190      -0.07133381      -0.01840929      -0.01103696
H        0.26221593      -0.58669922       0.76670182      -0.02340960      -0.07878645       0.05083436
H       -0.91529781       1.12026015      -0.63723363       0.02938696       0.00621245      -0.01662284
N        0.96029946      -0.71201449      -1.21530728      -0.00023210       0.02088110      -0.00059408
O        1.40054628      -0.07930941      -2.14653528       0.01547431      -0.01440563      -0.10152462
O        0.54372043      -1.84686592      -1.27410478      -0.03293132       0.06692736       0.02917247
N        0.47456069       1.98781103       1.30752129       0.02342771      -0.01853096       0.03204361
O        0.57134980       3.21136668       1.37875476       0.00501489       0.05327509      -0.05590036
O        0.13739727       1.29814118       2.27425306      -0.03418315      -0.04729279      -0.01544153
