14
Properties=species:S:1:pos:R:3:forces:R:3 Coordinates=T from=T ORCA-job=T run=T Energy:=T 153.7071478=T energy=-21230.48183146374 pbc="F F F"
C        0.34730410      -0.10857815       0.05216068       0.02853790       0.02549688      -0.04252508
H        1.09012473       1.61634724      -1.01128867      -0.00758885      -0.03492589      -0.01920016
F       -0.43300656       0.26923150      -2.01590525       0.00476133      -0.05138492       0.00524622
F        0.95538960      -0.35851295       1.28265103      -0.03386397      -0.05349883       0.02357372
C        0.36684841       1.39352799      -0.23563054       0.01473223       0.03861916       0.04686525
H       -0.63643492      -0.55608065       0.04022667       0.04133582       0.00973282       0.02280517
N        1.21424883      -0.89249050      -0.89773619      -0.02251670       0.00877195      -0.05595660
O        2.23412085      -0.37634206      -1.29674427       0.03580049       0.05973716       0.00733528
O        0.90633694      -2.05045344      -1.05505827      -0.01376865      -0.04712093       0.01380533
N        0.86937231       2.14054505       1.01571953       0.00853523      -0.02225908       0.00103736
O        1.96017524       2.65960234       0.93282473       0.01797429      -0.01181583      -0.00839357
O        0.15598008       2.16112848       1.99029605      -0.04725996       0.03519915      -0.02102718
C       -0.95386215       1.93279970      -0.55704302       0.06583699      -0.09295426       0.00374070
N       -1.95247723       2.49684114      -0.63867016      -0.09581270       0.11217437       0.00768309
