13
Properties=species:S:1:pos:R:3:forces:R:3 Coordinates=T from=T ORCA-job=T run=T Energy:=T 38.8609048=T energy=-91798.1555021067 pbc="F F F"
C        0.31290586      -0.07336947      -0.24865859       0.01066955      -0.01615230      -0.06291855
H        1.67421160       1.45538901      -0.67183101       0.00542077       0.06160636      -0.00463053
Br      -1.43077732      -0.37256088       0.52604340      -0.02552105      -0.04783816      -0.06355193
Cl       2.74814525      -0.16231472       1.93437624       0.00059154       0.00313514       0.00359147
C        0.65676688       1.39892123      -0.28635356       0.00072448      -0.03549008       0.01892699
H        1.04901996      -0.57555005       0.39394371       0.03165294      -0.03810410       0.00514277
H        0.70434632       1.70058942       0.76419250       0.09473110       0.09152930      -0.01473757
N        0.41837073      -0.71378401      -1.62370137      -0.01215193       0.10655058       0.00492632
O        1.31150666      -0.29829622      -2.32973178       0.04856759       0.09303662       0.08518105
O       -0.31848077      -1.62145943      -1.92062450      -0.15195265      -0.09272519       0.03675545
N       -0.26029458       2.17787667      -1.11376527      -0.02633336      -0.09165158       0.01514373
H        0.22502992       2.94582761      -1.55365835       0.04464832       0.00423045       0.03594254
H       -0.99735845       2.56786144      -0.54146024      -0.01726862      -0.02181425      -0.04741910
