16
Properties=species:S:1:pos:R:3:forces:R:3 Coordinates=T from=T ORCA-job=T run=T Energy:=T 50.2267129=T energy=-92868.00055820387 pbc="F F F"
C        0.20155242      -0.06358813      -0.22881154       0.02037939       0.03408492      -0.01094389
H        1.47384665       1.54245461      -0.49927988      -0.01846727       0.04947290      -0.00915418
Br      -1.62643099      -0.54264146       0.20087724       0.03579365      -0.06342521      -0.02029345
Cl       2.82261337      -0.30543054       1.83018437       0.00267840      -0.03111659      -0.00197181
C        0.42403512       1.44180570      -0.21540507      -0.00717634       0.03775220       0.00057262
H        0.86873795      -0.54956108       0.49655722       0.01739116      -0.00063238      -0.00081641
N        0.57920877      -0.65359303      -1.58389588      -0.06798291       0.06766508      -0.02053288
O        1.40322123      -0.04569090      -2.22905214      -0.00367854      -0.08141680       0.07312172
O        0.09167714      -1.71090738      -1.90845782       0.01134310      -0.00268460       0.00884262
C        0.25331714       2.02303697       1.18516506      -0.00918646      -0.01562657      -0.00797197
H       -0.78113027       1.90729257       1.52860033       0.01196000       0.04612204       0.01051733
H        0.92500623       1.53018321       1.89397615       0.00168822       0.01000510      -0.03983615
H        0.48984281       3.09311834       1.15406506       0.00013690      -0.04835382       0.02994391
N       -0.40945463       2.08193347      -1.23646207       0.01759684       0.02418289       0.00280707
H        0.06821545       2.89066628      -1.61130051       0.00300858      -0.02293377       0.01245904
H       -1.26825780       2.41151851      -0.81097197      -0.00638986      -0.02323919      -0.02984483
