15
Properties=species:S:1:pos:R:3:forces:R:3 Coordinates=T from=T ORCA-job=T run=T Energy:=T 62.2358190=T energy=-23270.946828965265 pbc="F F F"
C        0.27571076      -0.01859775      -0.19212341       0.03104504      -0.00024126      -0.03945033
H        1.50313194       1.58068531      -0.70143059      -0.03133905       0.00529108       0.00308866
Cl      -1.35901058      -0.44881342       0.31863994      -0.05512203       0.00581146       0.00758392
H        1.88323929      -0.30359033       1.89077288       0.00381989      -0.00166499      -0.00514048
C        0.49839592       1.48737059      -0.27308853       0.00994055      -0.00179035      -0.01041197
H        1.00892014      -0.39739971       0.61943105      -0.00164395       0.00406006      -0.02113473
N        0.61827583      -0.67474562      -1.48389651       0.01674491      -0.05572994       0.04493195
O        1.65569109      -0.29899069      -2.00397841       0.03685051       0.01216182      -0.00103426
O       -0.05796505      -1.58622156      -1.90908984      -0.04115827      -0.00734756      -0.00108543
N        0.40952823       2.01626093       1.08373610       0.02133183      -0.01159387      -0.05670415
H        0.94634090       2.87636295       1.11681870      -0.01852724       0.02806955       0.01273030
H        0.91160141       1.35161007       1.69420741      -0.01877252       0.00741324      -0.00331266
N       -0.42840956       2.10890448      -1.21048429       0.01052368       0.00049784       0.02182991
H       -0.08111649       3.02465343      -1.46888758       0.00235503       0.01885082       0.03644207
H       -1.30351891       2.25491057      -0.71725504       0.00970856      -0.02341831       0.00777941
