14
Properties=species:S:1:pos:R:3:forces:R:3 Coordinates=T from=T ORCA-job=T run=T Energy:=T 23.2188034=T energy=-33838.80237435371 pbc="F F F"
C        0.39799536      -0.11439175      -0.19133507       0.00647582      -0.01933927      -0.02955862
H        1.79800626       1.37553193      -0.64054157       0.01671161      -0.00493074       0.00322296
Cl      -1.19952891      -0.38868558       0.52855094       0.03698953       0.02430523      -0.00184865
Cl       2.80930212      -0.08773870       2.02687731      -0.01389357      -0.01280519       0.00850592
C        0.75854663       1.35356132      -0.30890255       0.01106529      -0.00399068       0.01260454
H        1.15235841      -0.61051550       0.43319143      -0.01259559       0.01235609      -0.00439962
H        0.77561004       1.74140985       0.71054733      -0.01930540      -0.00607944       0.03319497
N        0.45979404      -0.74593242      -1.57391877      -0.00111446      -0.03891114      -0.02290273
O        1.54821471      -0.67862223      -2.10248895       0.03412412       0.01428799      -0.00384761
O       -0.52127877      -1.24209890      -2.07579875      -0.01498056      -0.00577524       0.02615158
C       -0.14159222       2.16340994      -1.22964259      -0.00546038       0.01605804      -0.00728956
H       -0.09544175       1.80125570      -2.26181870      -0.00204635      -0.00807329      -0.01866816
H       -1.18653999       2.13369414      -0.91057438      -0.01738526      -0.01046510       0.01457045
H        0.17643201       3.20841741      -1.23693245      -0.00352536       0.03771160      -0.01206417
