12
Properties=species:S:1:pos:R:3:forces:R:3 Coordinates=T from=T ORCA-job=T run=T Energy:=T 164.9169644=T energy=-35278.38761842204 pbc="F F F"
C        1.22339514      -0.06288144      -0.01701914      -0.05144213       0.02502192      -0.02537182
H        1.35723034       1.89147157       0.83518676      -0.00538536      -0.04394945      -0.00016778
Cl      -2.38878297       0.50814490      -0.26038217       0.05941977       0.00343703       0.04698301
Cl       2.99817471      -0.23248412      -0.31238864      -0.01779177      -0.03442666       0.04556630
C        0.83473622       1.39424905       0.01525493       0.01308161       0.05396567      -0.05942578
H       -0.25298685       1.46646192       0.13215270      -0.04259289      -0.07303228       0.01332682
H        1.11813379       1.84602433      -0.93573565       0.01738361      -0.00912729       0.03153655
N        0.57073097      -0.79279074      -1.21843973      -0.01789329       0.01554701       0.04395149
O        0.57120089      -0.19175498      -2.25985092       0.01732341      -0.00136948       0.05664965
O        0.19954460      -1.91797368      -1.02237920       0.01476402      -0.04740691      -0.04548514
C        0.91694868      -0.79628862       1.21758849       0.04411874       0.07678336      -0.13228666
N        0.78752901      -1.32356100       2.22864183      -0.03153666       0.01953962       0.01317077
