18
Properties=species:S:1:pos:R:3:forces:R:3 Coordinates=T from=T ORCA-job=T run=T Energy:=T 52.4948097=T energy=-27611.6854688918 pbc="F F F"
C        1.03091134       0.01777551       0.05353537      -0.02111590       0.00257364       0.04647610
H        1.78264526       1.89219631      -0.35212941      -0.04353771      -0.00556055       0.01469134
Cl      -2.26994264      -0.40373296      -0.46667422       0.01800484       0.00049984      -0.01969577
F        2.37331213      -0.11205406       0.42656499      -0.02142462      -0.02303712      -0.01707509
C        0.77935032       1.53191933      -0.09436329      -0.03603287       0.00582136       0.03333565
N        1.01698733      -0.79084622      -1.25039903       0.04356184      -0.02437599       0.00476696
O        1.42912943      -0.21088802      -2.23161903      -0.02148159      -0.03695140       0.02400412
O        0.74867631      -1.95804067      -1.17304493       0.00464098       0.00986150      -0.01740383
C        0.29801801      -0.69897590       1.11442085      -0.00622631       0.02858035      -0.00935567
N       -0.00087816      -1.18381220       2.11199801       0.00778739      -0.02545266      -0.01769201
C        0.37306673       2.09763485       1.27019207       0.00109325       0.01431282       0.02067035
H       -0.64774070       1.78661707       1.51036954       0.01517628       0.00389497      -0.02235311
H        1.02769381       1.76624977       2.08096721       0.04993720       0.00915751      -0.03082478
H        0.40023725       3.19053732       1.23555786       0.00825138      -0.00497508      -0.00941888
C       -0.18257691       2.03647490      -1.17113139       0.01157608       0.00717731       0.00239981
H        0.05710754       1.63053701      -2.15211000      -0.00758974       0.03693691      -0.01040180
H       -1.21818491       1.78293520      -0.94504264       0.05552887      -0.01698140       0.02584155
H       -0.06354144       3.12599408      -1.21097792      -0.04036103       0.00062907      -0.03079114
