15
Properties=species:S:1:pos:R:3:forces:R:3 Coordinates=T from=T ORCA-job=T run=T Energy:=T 188.5289938=T energy=-26543.07407759155 pbc="F F F"
C        0.09369783      -0.10887247      -0.08888625      -0.01820076      -0.07156202      -0.07968413
H        1.64713803       1.35823968      -0.26422502       0.05640490       0.00355429       0.00284542
F       -1.27400936      -0.17781398      -0.29415064      -0.04262723       0.01274804      -0.00431067
Cl       3.56803676       0.75756288       1.15980037      -0.02500090      -0.00389915      -0.01099150
C        0.55507720       1.33610181      -0.16262762       0.03604752      -0.05692717      -0.03842299
H        0.36422976       1.79939153       0.80939802      -0.05251977       0.00671425      -0.06611036
N        0.64561091      -0.91123195      -1.29617291      -0.02051705      -0.01146553      -0.04629662
O        0.93963871      -0.29648307      -2.29283243       0.03113414       0.08428434       0.04050692
O        0.67796180      -2.11510653      -1.18396612      -0.04959206       0.00223140       0.01972773
C        0.44780818      -0.81476388       1.18402840       0.01594105       0.01378002      -0.01421756
H        0.06406004      -1.83394430       1.14182320       0.03443555       0.03885790       0.06471836
H        1.53197035      -0.80223812       1.32125154       0.04407867       0.02507133       0.04056754
H       -0.01071255      -0.26975077       2.01128561      -0.01661182      -0.05077241       0.03194258
C       -0.11522118       2.11011005      -1.20487837      -0.08963343       0.07144779      -0.05723050
N       -0.66475163       2.75022089      -1.98707501       0.08658051      -0.04193096       0.10079783
