17
Properties=species:S:1:pos:R:3:forces:R:3 Coordinates=T from=T ORCA-job=T run=T Energy:=T 53.6130344=T energy=-92431.75559899575 pbc="F F F"
C        0.01872362      -0.09598943       0.01270506      -0.00820592      -0.00447984       0.02888132
H        1.64244010       1.24078610      -0.06778319      -0.04597591       0.00872294      -0.05999651
Br      -1.96979104      -0.11000823      -0.01270930       0.00638065      -0.01455734      -0.02698481
Cl       3.70937842       0.65463384       1.19308935       0.00621589      -0.01669682       0.03629822
C        0.54709268       1.32568202      -0.01313934      -0.05223159      -0.01432207       0.00438522
H        0.18107095       1.81804070      -0.91486121       0.00584401       0.00671367       0.00483967
N        0.36522485      -0.79720595      -1.32075150       0.00115653      -0.00266775      -0.00270453
O        0.45409218      -0.10755724      -2.30889570      -0.00987484       0.03694139      -0.02665259
O        0.49375990      -1.99916004      -1.30370897       0.00969875      -0.01500531       0.03037315
C        0.51256025      -0.93096761       1.16606223      -0.00496911      -0.01134464       0.00259043
H        1.60830681      -0.91318813       1.16184012       0.02279300       0.01187317       0.01538915
H        0.17943047      -0.47791976       2.10007836      -0.01898867       0.00168601       0.00827342
H        0.13798972      -1.95035654       1.10569471       0.01474259      -0.01882491      -0.00716288
C        0.20676567       2.12775500       1.23685312       0.02139203       0.03246655      -0.02184730
H       -0.86755217       2.12658435       1.45295918       0.03834056      -0.01548480       0.03268581
H        0.76361906       1.76103030       2.10252739      -0.02153360      -0.01661940      -0.03190719
H        0.51283551       3.16423841       1.08500584       0.03472333       0.04570045       0.00214200
