14
Properties=species:S:1:pos:R:3:forces:R:3 Coordinates=T from=T ORCA-job=T run=T Energy:=T 45.1227495=T energy=-81554.36359071963 pbc="F F F"
C        0.18333160       0.04322717       0.05652320      -0.02621893       0.01058402       0.01181867
H        1.86224841       1.20940091       0.04467170       0.01158737       0.00360880       0.00860670
Br      -1.81651613       0.17096374      -0.12210306       0.03918987      -0.00435649      -0.00903308
F        2.84783224      -0.33955615      -0.06255912      -0.00353212      -0.00009305       0.00358931
C        0.78013772       1.42555545       0.02945130       0.00514190       0.00083658      -0.00440024
H        0.45193586       1.97911637       0.91375300       0.00332374      -0.01497028       0.00554952
H        0.49630004       1.96803696      -0.87073841      -0.00132770      -0.00428797      -0.01302873
N        0.58951570      -0.73111877      -1.20855122       0.00368837       0.00216350      -0.00281672
O        0.79157418      -0.08789066      -2.21119667      -0.01372973       0.01106567      -0.00192655
O        0.55583108      -1.93796518      -1.15390465      -0.00014054      -0.00539969       0.00760603
C        0.53338850      -0.75596597       1.28427829      -0.00254850      -0.00434957      -0.00006986
H        1.63372096      -0.81598434       1.21082340       0.00401220      -0.00035378       0.01616760
H        0.20173972      -0.21679560       2.17604964      -0.00654809       0.01208267      -0.01060784
H        0.08029337      -1.74550616       1.26114786      -0.01102234      -0.00715636      -0.01371085
