15
Properties=species:S:1:pos:R:3:forces:R:3 Coordinates=T from=T ORCA-job=T run=T Energy:=T 51.2486704=T energy=-14033.506660920626 pbc="F F F"
C        0.28103672      -0.01391697       0.10094467       0.01497745      -0.01103136      -0.00966932
H        1.82186420       1.49452249       0.20135104      -0.02757673      -0.00089598      -0.01728724
F       -1.06818189      -0.01805421      -0.15840700       0.01449102       0.01138917       0.01157434
H        1.97810255      -0.70550745      -0.78041012       0.02357046       0.00063430       0.01212395
C        0.73122016       1.44241815       0.11615419      -0.01429233      -0.01289179       0.00350077
H        0.46530875       1.81968973      -0.87480286       0.00172418       0.00925795       0.01240950
N        0.98226802      -0.69457792      -1.08715505       0.01268458      -0.00491550       0.00189967
O        0.89722873       0.10108042      -2.16530551      -0.00840739       0.01119083       0.00820807
O        0.55801704      -1.95491391      -1.17297057      -0.01587075      -0.00179194      -0.01211577
C        0.52693690      -0.79751631       1.36406386      -0.00961125      -0.00635566      -0.00626473
H        1.59435804      -0.79907489       1.61388653      -0.02072393      -0.00185906       0.00756919
H       -0.03300533      -0.37206967       2.20123232       0.00994962      -0.00949777       0.01174293
H        0.21254281      -1.81896924       1.15668605       0.00860875      -0.01063849      -0.01620478
C        0.13321965       2.21060408       1.20266087       0.00386686      -0.00640667       0.00177695
N       -0.32440506       2.80355619       2.07733343       0.00217861       0.02665249      -0.01952090
