19
Properties=species:S:1:pos:R:3:forces:R:3 Coordinates=T from=T ORCA-job=T run=T Energy:=T 83.9632699=T energy=-16801.177834499398 pbc="F F F"
C        0.00733248       0.03726926       0.03788051       0.03015929      -0.02353468      -0.03059008
H        1.61614738       1.32677583      -0.15254731       0.00521324       0.00155902       0.00083321
F       -1.39062009       0.04531142      -0.14708773       0.03255848      -0.01408162      -0.01328739
F        2.84089348       0.06509735       0.46422164      -0.00892071      -0.00574256       0.01153064
C        0.53576456       1.47652732      -0.00464521      -0.00326496      -0.01819873      -0.01986441
N        0.47305395      -0.74521981      -1.22485296      -0.01201903      -0.01466393      -0.02734319
O        0.91861586      -0.13818812      -2.17256795      -0.00438953       0.02998658       0.01273227
O        0.27610841      -1.94033213      -1.22455882      -0.00035162      -0.00180486      -0.00629394
C        0.37895362      -0.77878218       1.23865460      -0.01275888       0.02205051       0.01172935
H        1.48758738      -0.68623008       1.27503847      -0.02832250      -0.00651860       0.02106888
H       -0.09759472      -0.34556188       2.12021308      -0.00668094       0.00798240       0.03090943
H        0.04455743      -1.80849990       1.10979219      -0.00286270       0.02887235       0.00051586
C        0.34916585       2.15336171       1.34803896       0.00686191      -0.00847334      -0.01248243
H       -0.69251925       2.12140498       1.69591747       0.00762461      -0.01427259      -0.00095572
H        0.99681401       1.68601195       2.09103865       0.01934341       0.00704826      -0.01164496
H        0.63506176       3.20168503       1.23988540       0.00728256       0.00282259       0.01229202
N       -0.06548521       2.29960884      -1.05435836      -0.01668341      -0.02157293       0.00026036
H       -1.06880887       2.14642958      -1.05264501      -0.02037201       0.02419973       0.00207739
H        0.27241109       1.95732991      -1.94455799      -0.00724541      -0.00580174       0.01235067
