17
Properties=species:S:1:pos:R:3:forces:R:3 Coordinates=T from=T ORCA-job=T run=T Energy:=T 80.0434905=T energy=-21733.669666388578 pbc="F F F"
C        0.09568643      -0.08542134      -0.02135301      -0.00345958       0.00270513       0.01121529
H        1.58569461       1.39183850      -0.20285398      -0.02898724       0.00082569       0.01198441
F       -1.27753279      -0.22265235      -0.16604792      -0.00674034       0.00116576       0.02416139
F        2.84843052       0.12914311       0.51398869      -0.00297317      -0.01087043      -0.01713399
C        0.49074886       1.38757306      -0.12830703      -0.01936703      -0.00457065      -0.01014809
N        0.59915382      -0.83711291      -1.32308371       0.04295436       0.00124400       0.00998899
O        1.20619685      -0.25319469      -2.18179512      -0.00119394       0.00466264      -0.01453021
O        0.34332866      -2.02628951      -1.33311889      -0.02746016       0.00440983      -0.02019516
N        0.58425162      -0.67904150       1.11425979       0.02149186       0.00724376      -0.00093549
H        1.66053828      -0.43758438       1.07169237      -0.02697637      -0.00662200       0.00780410
H        0.41042118      -1.67629662       1.06794807       0.02951724       0.01951765       0.00881396
N        0.16462417       2.02723995       1.24348371       0.00684603       0.00384510       0.00028138
O        1.07181910       2.32357719       1.97807235      -0.01113778      -0.02370108       0.01558708
O       -1.01197560       2.25894580       1.46478720       0.01432451       0.00331222      -0.01807743
N       -0.23330766       2.05815894      -1.14867836       0.00130495       0.00693848      -0.00999618
H        0.15645162       2.97061182      -1.33363391       0.00467538       0.00636391      -0.00599622
H       -1.20313742       2.14818946      -0.87434388       0.00213140      -0.00125526      -0.01786123
