16
Properties=species:S:1:pos:R:3:forces:R:3 Coordinates=T from=T ORCA-job=T run=T Energy:=T 71.3175041=T energy=-83062.00150959931 pbc="F F F"
C        0.44146309      -0.10034513      -0.03707116       0.02256107       0.00647071       0.09275740
H        1.59443388       1.61897448      -0.37285610      -0.10938928       0.00533621       0.15734293
Br      -2.62985883       0.05013402      -0.30428142       0.01774454       0.04580809       0.01993682
F        3.25811735      -0.33672848       1.55355617      -0.02476375       0.12297158       0.12006079
C        0.55078823       1.39545431      -0.09672444      -0.03432379      -0.05128084       0.03013430
H       -0.08120263       1.74533450      -0.91206536       0.00853092      -0.00240143       0.02753664
N        0.25785323      -0.81423383      -1.37580689       0.17759336       0.01384904      -0.08451164
O        0.34135960      -0.13281028      -2.36800781      -0.09319178       0.00071725      -0.09102920
O        0.20695544      -2.02374393      -1.35394805      -0.08742576       0.08272948       0.02985282
N        0.73876062      -0.81914715       0.94710694       0.11544340      -0.03603836       0.07093928
H        2.31577470      -0.40274884       1.59329597      -0.01796535      -0.09409651      -0.06276813
H        0.64986436      -1.80980620       0.71411420      -0.06456346       0.11655234      -0.04092444
C        0.12603070       2.04268457       1.22715634      -0.04522842      -0.09335173      -0.10745755
H       -0.95163333       1.88635572       1.32978284       0.04576907      -0.01796629       0.09130187
H        0.62431435       1.58576774       2.09068267       0.01804045       0.08571582      -0.16249204
H        0.32043541       3.12386026       1.23605156       0.07206789      -0.18691946      -0.09599654
