14
Properties=species:S:1:pos:R:3:forces:R:3 Coordinates=T from=T ORCA-job=T run=T Energy:=T 205.7919022=T energy=-84503.23348759217 pbc="F F F"
C        1.13898113      -0.04128371       0.19363689       0.01325504       0.04449500       0.07312183
H        1.07920916       1.86975223      -0.77689352       0.02006676      -0.00749777      -0.02110996
Br      -2.68408359      -0.14459016      -0.05467756       0.03740272      -0.01637719      -0.00981053
F        2.47218737       0.03611597       0.56573682       0.03324111       0.01126119       0.04172607
C        0.56047058       1.35127905       0.02777166      -0.00442705       0.00389660       0.05970951
H       -0.50540339       1.26015695      -0.22830313      -0.00967222      -0.01616998       0.00652978
N        1.32780188      -0.70332277      -1.23035903      -0.02402894       0.04625400       0.00321565
O        1.42905913       0.01400985      -2.19837621      -0.00648601      -0.02178045      -0.00809684
O        1.42955915      -1.90742016      -1.23092060      -0.02785280      -0.03085887      -0.03894041
N        0.43156018      -0.83797597       1.06466707       0.02428083       0.04309618      -0.05988915
H        0.72806042      -1.80138724       1.00819301      -0.00510452      -0.07512628      -0.01574102
H       -0.58107108      -0.75198018       0.91746814      -0.04864815      -0.00536778       0.02687526
C        0.70241914       2.10472923       1.27200917      -0.03221301       0.05963084       0.07470662
N        0.81275754       2.71961071       2.23767818       0.01307314      -0.02552554      -0.12980344
