15
Properties=species:S:1:pos:R:3:forces:R:3 Coordinates=T from=T ORCA-job=T run=T Energy:=T 79.8005993=T energy=-17524.451661482093 pbc="F F F"
C        0.15629841      -0.11214294      -0.36091855       0.00231605       0.00798006       0.00133419
H        1.15972591       1.10383886      -1.84323906       0.01486869      -0.01680439      -0.01983249
F       -1.14548015      -0.13350985      -0.88495130       0.01579551      -0.01710424       0.01903204
H        2.55226015       0.52723620       1.44713746      -0.00217941       0.00668883       0.00331363
C        0.87956201       1.14224180      -0.79832899       0.00175906       0.01099963      -0.00582187
H        1.76279509       1.24939835      -0.12441047      -0.04129659      -0.00731633       0.01994343
N        0.75371633      -1.34278013      -1.20657987       0.01424961       0.01246112      -0.04017689
O        1.35449995      -1.13482395      -2.23734598      -0.01868408      -0.00910952      -0.00485437
O        0.52950371      -2.43926901      -0.74652531       0.02009460      -0.02606744       0.00163801
N        0.21643560      -0.34429905       0.97140241       0.01635022      -0.02864905      -0.01109090
H        1.17398161      -0.02060640       1.35708403      -0.03662936      -0.01110162      -0.01262793
H       -0.00835677      -1.30336333       1.19815608      -0.00242553      -0.01093662       0.04273806
N        0.03021409       2.35095800      -0.64073323       0.01921678       0.03156198       0.01708182
O       -0.59134471       2.50466546       0.38337901      -0.01117157       0.02861472      -0.01179249
O        0.05329824       3.15039059      -1.56206296       0.02361094       0.00570123       0.01764496
