13
Properties=species:S:1:pos:R:3:forces:R:3 Coordinates=T from=T ORCA-job=T run=T Energy:=T 37.9466382=T energy=-14662.496350268288 pbc="F F F"
C        0.13568501       0.02173190       0.02224821       0.01924566      -0.00051020       0.00659763
H        1.89571350       1.15017692       0.06213586      -0.00101251       0.01843484       0.01909973
F       -1.27115335       0.17967349      -0.01475735       0.00360117       0.00641065      -0.02404606
F        2.94744332      -0.08506412       1.17498595       0.03002431       0.00336843       0.02102819
C        0.82515231       1.35298592      -0.06243613       0.00075160       0.01620061       0.01306794
H        0.49548396       1.94339089       0.79403906      -0.00078468       0.03071645       0.00815771
H        0.58036457       1.86593803      -0.99111636      -0.01310380      -0.01333841      -0.00292135
N        0.28552867      -0.71486325      -1.40660257      -0.08154452      -0.06931646       0.06666608
O        0.16549796      -0.05255026      -2.41486149       0.04157128       0.02083235      -0.06407856
O        0.45739872      -1.91487703      -1.39602377      -0.01964989       0.00674887       0.00148632
N        0.55327548      -0.75313733       1.05473825       0.00998745      -0.00650519      -0.00046793
H        1.63341144      -0.57094468       1.22285902      -0.00255367      -0.01787644      -0.01887698
H        0.30398965      -1.72369017       0.92194659       0.02112284      -0.00398416      -0.02699058
