16
Properties=species:S:1:pos:R:3:forces:R:3 Coordinates=T from=T ORCA-job=T run=T Energy:=T 235.9587646=T energy=-28484.728856223795 pbc="F F F"
C        0.12115744      -0.10569538      -0.15434711      -0.08350835       0.04118831      -0.00772390
H        1.56051980       1.36396648      -0.78507425      -0.04468243      -0.11115953       0.02386784
Cl      -1.70142138      -0.35455798      -0.52119229       0.08149943       0.17022246       0.15117426
F        2.62196797       0.32272010       1.80953611      -0.03822496      -0.00372984      -0.07979640
C        0.59418477       1.39244912      -0.27340981      -0.00792365       0.02967385       0.04246892
N        0.68712368      -0.90389708      -1.41191619       0.06689121       0.04085734       0.02877858
O        0.95354301      -0.27323762      -2.41071983       0.00221500      -0.04092588      -0.03274905
O        0.81817476      -2.09723068      -1.27971128       0.02146473       0.02699583       0.00226352
N        0.45860991      -0.64602943       1.03786298       0.09238206      -0.09226493      -0.05686833
H        1.44137633      -0.32777925       1.43117415      -0.09447157       0.05251810      -0.01560121
H        0.28681220      -1.63812440       1.07039695       0.01466259      -0.14181331      -0.03643132
N        0.80709179       2.07498552       0.97602475      -0.12746209      -0.04056034       0.19784899
H        1.54732903       1.55059503       1.48141851       0.09742595       0.15025523      -0.08958116
H       -0.03709987       2.02523408       1.53462143      -0.03716552      -0.01008090       0.00131983
C       -0.31088574       2.20994566      -1.10231792      -0.05099400       0.04432525      -0.14453407
N       -1.01247242       2.91115490      -1.68525056       0.11982827      -0.09142954       0.00753581
