13
Properties=species:S:1:pos:R:3:forces:R:3 Coordinates=T from=T ORCA-job=T run=T Energy:=T 55.3340475=T energy=-24469.975169307665 pbc="F F F"
C        0.14370157       0.01169661       0.14024812      -0.01044855       0.01694976       0.02654447
H        0.69022966       1.88770918       0.92567560      -0.01915367      -0.01337577      -0.01652028
F       -1.21685862       0.13486610       0.44336414      -0.01604849      -0.00656839      -0.00213913
Cl       3.89054029      -0.21385395       0.46651247       0.01090150      -0.01419391       0.01892232
C        0.76035969       1.36760705      -0.03117932       0.00978962       0.00991981      -0.02004644
H        0.22946862       1.92002317      -0.80320213      -0.01226599       0.03716661       0.00549777
H        1.81665535       1.26154124      -0.28768907       0.02340005       0.00290007      -0.01280834
N       -0.00111913      -0.69969666      -1.27251984      -0.01877368       0.01006031       0.00447549
O       -0.07836177      -0.01025635      -2.26308648      -0.00711089      -0.02875739      -0.02584104
O       -0.08679055      -1.90830726      -1.25793373       0.00789672       0.01720794      -0.01078608
N        0.77341319      -0.79913055       1.05751805       0.00484621      -0.00577424       0.02095163
H        1.79572661      -0.69419962       1.01741482       0.01511891      -0.00399566       0.01062533
H        0.50481385      -1.76712515       0.94357801       0.01315853      -0.01104280      -0.00727789
