16
Properties=species:S:1:pos:R:3:forces:R:3 Coordinates=T from=T ORCA-job=T run=T Energy:=T 52.4167572=T energy=-25539.577275912827 pbc="F F F"
C        0.08898997      -0.04344247       0.07044663      -0.04395363       0.06465780      -0.00842647
H        1.72676467       1.26909990      -0.20714283       0.01227967       0.03354234      -0.01722458
F       -1.29943391       0.01128415       0.21835936      -0.07598354      -0.03783794      -0.11575573
Cl       3.78728149      -0.03493218       0.86813419       0.02119241      -0.00149564       0.00058443
C        0.63536078       1.34563974      -0.17620689       0.01795637       0.07288671      -0.04895023
H        0.38435784       1.87135749       0.75046423       0.10393191      -0.04483899       0.03424322
N        0.16017315      -0.98583381      -1.21239228       0.08058299      -0.12525779       0.10710921
O        0.25255869      -0.49979870      -2.31557051      -0.02130285      -0.05826374       0.00433750
O        0.08561724      -2.17572282      -0.98715555      -0.05319381       0.10078728      -0.07041282
N        0.65406465      -0.66565144       1.16375316      -0.02543523       0.02149464      -0.03731614
H        1.67362698      -0.52794448       1.19620490       0.01811175       0.01109584       0.05189287
H        0.42277498      -1.64968290       1.17034171       0.04565974      -0.04135316       0.03917252
C        0.06821359       2.13460264      -1.35560315       0.00262988      -0.00928980       0.00790455
H        0.52662313       1.84418011      -2.29942163      -0.02934163      -0.00210886       0.03738655
H       -1.01146725       1.97524499      -1.44453876       0.03409169       0.11055087      -0.00934364
H        0.25529076       3.20457300      -1.20229529      -0.07617988      -0.09084550       0.02343657
