13
Properties=species:S:1:pos:R:3:forces:R:3 Coordinates=T from=T ORCA-job=T run=T Energy:=T 32.1752406=T energy=-30783.761708850878 pbc="F F F"
C        0.81815802      -0.06625185      -0.27874542      -0.01148650      -0.03849398      -0.00333883
H        0.80224055       1.79918278       0.69070342      -0.03428450       0.05333692      -0.02135469
Cl      -0.91336034      -0.36301662       2.50750706       0.00826375      -0.00308930      -0.00611191
Cl       2.63086773      -0.11823825      -0.32328814      -0.01615671      -0.04152156       0.01462020
C        0.31618871       1.36900826      -0.18859596       0.03175683      -0.03168715      -0.00527877
H        0.49725287      -0.59158944       0.63079178       0.00597014       0.00031704      -0.00000927
H       -0.74544379       1.30724113       0.07297719       0.04451554      -0.02842502      -0.02558486
C        0.32709274      -0.75352945      -1.47377906       0.01153340       0.01427422       0.03703578
N       -0.06562683      -1.25391073      -2.43186618      -0.02700821      -0.03791003      -0.01582067
C        0.55928057       2.18887045      -1.44756326      -0.01435490       0.01596534       0.00605626
H        1.61442578       2.17186012      -1.73774100       0.00218256       0.05180158       0.02482302
H       -0.01882466       1.79973820      -2.29143231      -0.00558095       0.00867372      -0.00020582
H        0.26734627       3.23014727      -1.29318058      -0.01026573       0.03655454      -0.00487052
