13
Properties=species:S:1:pos:R:3:forces:R:3 Coordinates=T from=T ORCA-job=T run=T Energy:=T 76.9288846=T energy=-78500.97554251741 pbc="F F F"
C        0.92025183      -0.06058551       0.01086739      -0.00133531       0.02877031      -0.05143666
H        1.53693407       1.91201832      -0.54348727       0.01940034       0.02278181       0.01741175
Br      -2.61265684      -0.11000895       0.04390865       0.01040523      -0.00206932       0.02006281
F        1.96111006      -0.30176034       0.92043155       0.00074465       0.00903236       0.00664544
C        0.65580938       1.42894196      -0.10493689      -0.01278129       0.03975736      -0.00603130
H        0.01663264      -0.57421823       0.35536081      -0.01196916       0.00157731      -0.00389158
H       -0.18297498       1.53967168      -0.79784150      -0.00638353      -0.00929108      -0.00979939
C        1.35269145      -0.61874994      -1.28382608       0.03390915      -0.00366986       0.00019110
N        1.73463292      -1.01727172      -2.29218689      -0.01531403      -0.02800475       0.00712430
C        0.28383980       2.04424929       1.23688760      -0.01066344      -0.00728728       0.02619052
H       -0.64647116       1.59624011       1.59562903      -0.00016128      -0.01018874       0.00486720
H        1.07095779       1.89267551       1.98131220      -0.00238640      -0.01827494      -0.01256622
H        0.11754632       3.12095022       1.13283906       0.01313332      -0.01474997      -0.01728981
