12
Properties=species:S:1:pos:R:3:forces:R:3 Coordinates=T from=T ORCA-job=T run=T Energy:=T 62.9283036=T energy=-92802.26833681883 pbc="F F F"
C        0.94559340      -0.07163604       0.02547769      -0.00572006       0.00475585      -0.01155048
H        1.27869602       1.98353601      -0.63958302      -0.01598010       0.01450317      -0.00793757
Br      -2.41231480      -0.22243787      -0.25854182      -0.00331864       0.00655168      -0.01664899
Cl       2.55186576      -0.29230306       0.82140977      -0.02050192      -0.00156297      -0.00369692
C        0.56570630       1.39205073      -0.06889112      -0.00682870       0.00720155      -0.00291703
H        0.18745215      -0.60664430       0.59957868       0.02674919       0.00233437       0.00871588
H       -0.44438179       1.42803150      -0.49844787      -0.00953667       0.01968711       0.00304214
C        1.03381852      -0.62683634      -1.32647840       0.01394754      -0.00579186       0.02366373
N        1.17819645      -1.03102691      -2.39193183       0.00309374      -0.01463779      -0.00214957
N        0.44957903       2.04633251       1.26943662       0.04036347      -0.01939405       0.03190490
O        0.56029784       3.25617082       1.27642810      -0.01983957      -0.04107798      -0.00098535
O        0.22815143       1.35678009       2.23498497       0.00327804       0.02507109      -0.01911706
