16
Properties=species:S:1:pos:R:3:forces:R:3 Coordinates=T from=T ORCA-job=T run=T Energy:=T 146.7839672=T energy=-9539.473853252275 pbc="F F F"
C        0.80220682      -0.04204672      -0.09122874      -0.02869844       0.02928038       0.06394354
H        1.82058978       1.85921182      -0.41357235      -0.01802979       0.00859028       0.00201790
F       -1.84507747       0.20793299       0.55290574       0.01667557      -0.00809568       0.00113791
H        1.42944660      -0.40392526       0.73293189      -0.01395758       0.01063328      -0.00052925
C        0.81149775       1.49858424      -0.15764768       0.00588569       0.01441114       0.01456858
H       -0.27641492      -0.29001876       0.13441251       0.02185108      -0.00816700      -0.02792628
C        1.26974865      -0.67219836      -1.31801002      -0.00425565      -0.04861649      -0.08984814
N        1.64082064      -1.16470877      -2.29421467      -0.01348918       0.04462054       0.10379794
C        0.37575929       2.03246591       1.20818283       0.02596365      -0.02102250      -0.02445114
H       -0.59531857       1.55925785       1.41830261       0.04668830       0.01182138      -0.01954970
H        1.10056000       1.78566536       1.99616981      -0.03373587      -0.00164528      -0.00220348
H        0.26538800       3.12498445       1.17456074       0.00429015      -0.05290991       0.05530912
C       -0.20471715       1.94819563      -1.20537378       0.02509059      -0.00592935      -0.00886941
H        0.06499811       1.58751397      -2.20362578      -0.03585057       0.00736609      -0.05708516
H       -1.16234445       1.51104293      -0.89168705      -0.00305899       0.00695502      -0.01579325
H       -0.27533122       3.04235103      -1.24233343      -0.01574993      -0.00090070      -0.02007109
