14
Properties=species:S:1:pos:R:3:forces:R:3 Coordinates=T from=T ORCA-job=T run=T Energy:=T 93.6834149=T energy=-90249.45976712847 pbc="F F F"
C        0.87525764       0.02237232      -0.08628554       0.01206578      -0.05421046      -0.00237980
H        1.74925356       1.92026296      -0.57609233      -0.01172807       0.02444898      -0.00581529
Br      -2.74360571      -0.26150652       0.14483491       0.01985557       0.02013055       0.00236759
Cl       2.12566909      -0.53279025       1.09831124      -0.02418658      -0.00756165      -0.03092696
C        0.80531953       1.55747484      -0.13339574       0.00322056      -0.01452948       0.00251541
H       -0.09529125      -0.36891863       0.24761886       0.00739637       0.01025193       0.01007981
C        1.23312296      -0.53088481      -1.39217105      -0.00986450       0.03211811       0.04747312
N        1.56995263      -0.96641558      -2.40056214       0.00582858      -0.02450159      -0.05037401
N        0.60231291       2.06021443       1.22375029       0.00801254       0.01451754       0.00202239
H        0.33410645       3.03431202       1.16850447      -0.02276755      -0.00660480       0.03010036
H        1.45630813       1.99656948       1.76570865      -0.01491253       0.02928213      -0.00543222
N       -0.26466036       1.87604447      -1.03560897       0.02409897      -0.00926715      -0.00446565
H       -0.34585939       2.87472909      -1.17052654      -0.02198683      -0.00116974      -0.00364765
H       -1.15240625       1.49320209      -0.69673537       0.02939035       0.00699509      -0.00487159
