13
Properties=species:S:1:pos:R:3:forces:R:3 Coordinates=T from=T ORCA-job=T run=T Energy:=T 57.8103977=T energy=-148776.39779384263 pbc="F F F"
C        0.18393448      -0.07960584      -0.14198899      -0.02040119      -0.02266784      -0.01618464
H        1.60957431       1.44010426      -0.22562682      -0.00371630       0.00200814       0.00567566
Br      -1.71938848      -0.39527043       0.24598138       0.02875243      -0.01804359      -0.00113230
Br       3.38299770      -0.10991946       0.94482912       0.00854199       0.00091962       0.01477444
C        0.51635550       1.41524535      -0.12527188      -0.00710525      -0.01916917      -0.00446145
H        0.77673773      -0.57823544       0.62983703      -0.03096210       0.00089136      -0.00622493
C        0.47784128      -0.68011939      -1.43906115       0.01005330      -0.01225374      -0.01678135
N        0.67564496      -1.18456199      -2.45207976       0.00052972       0.00537847      -0.00193234
C        0.19082228       1.99312724       1.19830803       0.01116675       0.03144691       0.00402515
N       -0.11944857       2.51879760       2.17297779       0.00899929       0.01744968      -0.00290354
N       -0.11528208       2.11924697      -1.22441743      -0.00348211      -0.00095862       0.01658927
H        0.29799580       3.03493121      -1.33533582      -0.00799256      -0.00450461       0.00429050
H       -1.10703396       2.23547129      -1.05535235      -0.00186614       0.01746633       0.00379429
