16
Properties=species:S:1:pos:R:3:forces:R:3 Coordinates=T from=T ORCA-job=T run=T Energy:=T 28.0703523=T energy=-12239.842368200798 pbc="F F F"
C        0.32402774      -0.07110715      -0.17957620       0.03161727      -0.01952207      -0.00029016
H        1.63038319       1.53552962      -0.39029317      -0.01470655       0.00521233       0.00762239
F       -1.04407257      -0.34374111       0.05380392      -0.00674611       0.00029806       0.00633096
F        2.02989975      -0.12681588       1.83269676       0.01553861      -0.02342816      -0.00304743
C        0.55137535       1.43734136      -0.22028506       0.00236824      -0.00846853      -0.00035602
H        0.97279253      -0.43560835       0.67914734      -0.00073331       0.02729400       0.00857617
C        0.66534406      -0.71968982      -1.45233852       0.00104826       0.02846909       0.02748975
N        0.94878053      -1.22161348      -2.44985054       0.00696683      -0.01986952      -0.01950267
C        0.26051061       2.01160313       1.16415438      -0.00697853       0.01048790       0.02006508
H       -0.80343431       1.91277209       1.40881995      -0.00019794      -0.01996590       0.00959265
H        0.87382589       1.43181008       1.86816197      -0.01771808      -0.00408224      -0.01807674
H        0.51889677       3.07681741       1.20399593       0.02026828       0.00923133      -0.00244342
C       -0.23469947       2.12694027      -1.33051393      -0.00207164       0.00764688      -0.01955489
H        0.03328860       1.74618103      -2.32217715      -0.00933536      -0.00583179      -0.00063600
H       -1.30858387       1.96759627      -1.18768912       0.00696445       0.00604694      -0.00940613
H       -0.05125188       3.20666732      -1.32421185      -0.01397533       0.01413320      -0.00124764
