15
Properties=species:S:1:pos:R:3:forces:R:3 Coordinates=T from=T ORCA-job=T run=T Energy:=T 194.1022897=T energy=-26541.32297001021 pbc="F F F"
C        0.90270336      -0.03681002      -0.02653192       0.04361948      -0.00823265      -0.00567833
H        1.72871584       1.93711939       0.15980605       0.00452028      -0.00582697       0.00399835
F       -1.34968851       0.19865501       0.11735420      -0.00665860      -0.02621781      -0.03357622
Cl       2.73598311      -0.42891786      -0.04980231      -0.04324311      -0.01065939       0.00126423
C        0.74963978       1.48949916      -0.04310221       0.00886134      -0.01206686      -0.01280383
H        0.53841737      -0.45165784       0.90141379       0.03456434       0.00438058      -0.00727063
C        0.33112582      -0.73701381      -1.17470308      -0.03424552       0.01972573       0.01135043
N        0.09019701      -1.32214132      -2.13738333       0.00388903      -0.00464838       0.03068739
N       -0.04040174       1.91277849       1.18103541      -0.01363142       0.02284116      -0.00268004
O       -0.76635225       2.87465239       1.08391893       0.03293771       0.00463505       0.00599006
O        0.24627056       1.37052357       2.22790810      -0.01958219      -0.00384409       0.01356196
C        0.15536459       2.05846897      -1.30996149      -0.01153990       0.00963399      -0.00612675
H        0.76378437       1.75307735      -2.16625625       0.00926308       0.01478711       0.00512615
H       -0.84908544       1.64669823      -1.39761494      -0.01486364      -0.00275109       0.00505571
H        0.12329541       3.14679144      -1.26253525      -0.00161783       0.01578292      -0.00855348
