15
Properties=species:S:1:pos:R:3:forces:R:3 Coordinates=T from=T ORCA-job=T run=T Energy:=T 76.9882116=T energy=-14034.828788227602 pbc="F F F"
C        0.71110690      -0.08477237      -0.12747516      -0.00478704       0.00735719      -0.00051302
H        1.65561007       1.84208373      -0.58873012       0.00730077      -0.00145737      -0.01920175
F       -1.72945213       0.31494743       0.63353188       0.00424354       0.01085692       0.01181197
H        1.23975008      -0.40732981       0.77534821      -0.00787308      -0.00612446      -0.01360613
C        0.72747193       1.43897863      -0.16437314      -0.00001800       0.00956874      -0.00090211
H       -0.39770583      -0.29706926       0.05086501       0.01323393      -0.01840117      -0.00523197
C        1.32773060      -0.74704715      -1.26467353      -0.00408609      -0.01110628       0.02591251
N        1.84951297      -1.31036763      -2.12476760       0.00146423       0.01535178      -0.00385912
C        0.43567652       2.01999666       1.20551016      -0.01066488       0.01173145       0.02073225
H       -0.51759701       1.56839751       1.50691181      -0.02518505      -0.01584820      -0.00355441
H        1.23578887       1.74306211       1.89966680       0.02914337      -0.00356095      -0.00806764
H        0.36419734       3.10597156       1.16220951      -0.01933521       0.02367746       0.00792676
N       -0.31766672       1.93079142      -1.15816966      -0.00394652      -0.00993026      -0.01033307
O       -0.73810791       3.06123535      -1.01756367       0.02308659      -0.00634354       0.01882307
O       -0.57916828       1.21794207      -2.09737643      -0.00457926       0.00906573      -0.02554090
