15
Properties=species:S:1:pos:R:3:forces:R:3 Coordinates=T from=T ORCA-job=T run=T Energy:=T 191.7269025=T energy=-36348.71701818945 pbc="F F F"
C        0.87226585      -0.04252087      -0.06370341      -0.01806673      -0.05542436       0.08570623
H        1.82246918       1.87468796      -0.30582194       0.01011731       0.05015262      -0.01811274
Cl      -2.39723428      -0.13330272       0.43354983       0.03085439      -0.03643896      -0.03170996
Cl       2.27157074      -0.62812148       0.91268969      -0.03677402       0.05190330       0.00298946
C        0.81471673       1.48165067      -0.14449982       0.06162672      -0.02561247      -0.00842266
H       -0.06689884      -0.41131772       0.37785382      -0.00827224      -0.03547997       0.03617243
C        1.04041326      -0.60923479      -1.40093022      -0.04063786       0.03554289       0.21336702
N        1.21545743      -1.05862899      -2.44205171       0.01288717      -0.06267451      -0.24859256
N        0.43718715       2.08934875       1.20149258       0.09433386      -0.03528127       0.00799363
O        0.27247495       3.29240965       1.19260317      -0.01549206       0.05570375       0.05063319
O        0.40667250       1.39131227       2.18087669      -0.06061032      -0.03366142      -0.06447930
C       -0.14224458       1.98128072      -1.21635367       0.01113233       0.00331257       0.01778239
H        0.28617851       1.80182957      -2.20394368       0.02169871       0.02631594      -0.01495236
H       -1.10018163       1.46134221      -1.13708514      -0.03264859       0.04184753       0.07441935
H       -0.28598065       3.05042853      -1.07066525      -0.02853016       0.01711114      -0.09879471
