14
Properties=species:S:1:pos:R:3:forces:R:3 Coordinates=T from=T ORCA-job=T run=T Energy:=T 74.8374753=T energy=-22918.77065665026 pbc="F F F"
C        0.79233207       0.01504697      -0.09755764      -0.00037983       0.01335490      -0.00883796
H        1.72750041       1.91064240      -0.57929186       0.02554078       0.00574491      -0.00955783
F       -1.83905669       0.01936065      -0.01643238       0.00041323      -0.00512947      -0.00160035
Cl       1.99455360      -0.59713786       1.11838048      -0.01839632       0.00425149      -0.00059889
C        0.77778512       1.55299932      -0.14181505       0.01344012       0.01171582       0.00793541
H       -0.26942470      -0.27724810       0.17363515       0.00798724      -0.01217060       0.00294692
C        1.15685820      -0.55649928      -1.38741955      -0.01879211      -0.02312300      -0.03095506
N        1.45651385      -1.03764459      -2.38957289       0.00749671       0.02658020       0.01476764
N        0.60853239       2.05883127       1.22807922       0.00465244       0.01564650       0.01812402
H        0.32413375       3.02836272       1.16597694      -0.01416488       0.01971763       0.01543649
H        1.49015383       2.02935564       1.72774873       0.01963210       0.00019697      -0.00203317
N       -0.31220371       1.89612854      -1.01227781       0.00898914      -0.01568299       0.00581762
H       -0.48674811       2.89389715      -0.98501163      -0.01061606      -0.03060061      -0.00525236
H       -1.13982991       1.34285520      -0.68192571      -0.01128881       0.00623839      -0.00953889
