15
Properties=species:S:1:pos:R:3:forces:R:3 Coordinates=T from=T ORCA-job=T run=T Energy:=T 61.8699065=T energy=-80005.77787250048 pbc="F F F"
C        0.33645691      -0.07467961      -0.19513587       0.01124799       0.02248356       0.00547065
H        1.66893771       1.47257381      -0.51455821      -0.02604934      -0.01306049       0.01805380
Br      -1.53474368      -0.53278203       0.19780657      -0.00661924      -0.00386257       0.02370257
F        1.96477967       0.02249684       1.88168594      -0.00746043      -0.02871522      -0.02337217
C        0.59763278       1.43887919      -0.24101392      -0.02148927       0.00828826      -0.01954735
H        0.96938696      -0.41048471       0.68184188       0.02931191      -0.02244887      -0.01583395
C        0.69351118      -0.71887920      -1.44789357       0.01143633       0.00529709      -0.00642538
N        0.99388058      -1.19607046      -2.45344684       0.01206367      -0.00592303       0.04080636
N        0.36416077       1.97188269       1.08987606       0.01224888      -0.02249282      -0.02796556
H        0.71246346       2.92470850       1.11590130       0.01969607      -0.01769309      -0.00685750
H        0.97715538       1.38577921       1.69342033      -0.01740709       0.00757109       0.02269648
C       -0.20785519       2.18296485      -1.29359246      -0.01363674       0.02882445      -0.00469824
H       -0.05856162       1.76714886      -2.29582407       0.00993412      -0.00042908       0.01153954
H       -1.27154708       2.14218117      -1.04733027      -0.01357761       0.00129974       0.00367905
H        0.09141283       3.23638880      -1.31586024       0.00118221       0.02858088      -0.02081695
