12
Properties=species:S:1:pos:R:3:forces:R:3 Coordinates=T from=T ORCA-job=T run=T Energy:=T 31.2096232=T energy=-92802.36048685714 pbc="F F F"
C        0.29356262      -0.07933488      -0.23799605      -0.01174517      -0.02193519      -0.00289383
H        1.78403717       1.34238684      -0.80321487       0.00981449       0.02545912      -0.00647109
Cl      -1.35062449      -0.12851182       0.48497710       0.00483304      -0.00723052       0.00192061
Br       3.09009661      -0.03789882       1.67809663      -0.00304841       0.00227530      -0.00372319
C        0.79066115       1.34728255      -0.35472696       0.00399595      -0.02870258       0.01359486
H        0.99013049      -0.54162813       0.47907695      -0.00536028       0.00038185      -0.00738890
H        0.84831678       1.79446057       0.63282507       0.00072305       0.02319967      -0.00348180
C        0.29634127      -0.84680140      -1.48200285      -0.01257406       0.00380688      -0.01359772
N        0.30985543      -1.49484858      -2.43070342       0.01748174      -0.01420955       0.01366694
N       -0.09750344       2.20148632      -1.20597742      -0.02534134      -0.01681613       0.01593888
O       -0.56128313       3.20134062      -0.70374301       0.02870762       0.00350847      -0.01148733
O       -0.28592811       1.84198150      -2.34851534      -0.00258659       0.02022022      -0.01269753
