15
Properties=species:S:1:pos:R:3:forces:R:3 Coordinates=T from=T ORCA-job=T run=T Energy:=T 82.8601576=T energy=-22483.787772889355 pbc="F F F"
C        0.20613911      -0.05016780      -0.21084883       0.02207217      -0.01163828      -0.01117824
H        1.54021910       1.55527394      -0.40196860      -0.00261688      -0.01535417       0.02350288
F       -1.15967045      -0.28092546       0.04728755       0.04304254       0.00163367       0.01056406
Cl       3.05440481       0.00724710       1.66118786      -0.00283905      -0.02039370       0.00509304
C        0.47213121       1.44664292      -0.18893787      -0.00946861       0.00218508      -0.00772342
H        0.80821800      -0.53338077       0.56680614      -0.02070646      -0.01034820      -0.03272511
C        0.49770737      -0.66530134      -1.51764094      -0.00355829       0.00223421      -0.01740086
N        0.71020194      -1.17934273      -2.52337226      -0.00252845       0.00597700       0.02831818
C        0.19664199       1.99388303       1.20935908       0.00742660       0.02222125       0.01804359
H       -0.84796393       1.82498977       1.49394377       0.00716454       0.00173144      -0.00906235
H        0.86154833       1.51451293       1.93172437       0.00143628      -0.00939581       0.01400642
H        0.39104237       3.07064151       1.23526009      -0.00766926       0.03240296      -0.02179401
N       -0.29178283       2.08116129      -1.26426171      -0.02128066       0.00977924      -0.01818961
H       -0.04582832       3.06195424      -1.31726609       0.00786435      -0.00604540       0.01437391
H       -1.27824164       2.03947914      -1.03289103      -0.00842755      -0.01046853      -0.00068757
