12
Properties=species:S:1:pos:R:3:forces:R:3 Coordinates=T from=T ORCA-job=T run=T Energy:=T 30.3042158=T energy=-35279.107411520185 pbc="F F F"
C        0.27616517      -0.08824573      -0.22009756      -0.00745256      -0.00964444      -0.02787375
H        1.78876671       1.35922429      -0.65111216      -0.01475360       0.01912813      -0.02397608
Cl      -1.42191231      -0.16284947       0.36847010      -0.00067742      -0.00634008       0.01605650
Cl       3.01283134      -0.07712824       1.48948105      -0.00557589       0.00657580       0.01898335
C        0.76216134       1.34465916      -0.28275574      -0.00869695       0.00693051       0.01290595
H        0.92419343      -0.55405910       0.53681116       0.00071725       0.00807361      -0.03141560
H        0.74582121       1.78419228       0.70868217      -0.00603330       0.02819287       0.03091175
C        0.38958408      -0.83956024      -1.46881080      -0.00202753      -0.01916059      -0.01754708
N        0.49424703      -1.47729559      -2.41881602      -0.00224790      -0.00570042       0.01945634
N       -0.07482013       2.20918856      -1.17722670       0.00631806      -0.00366034       0.00096646
O       -0.46620988       3.26435006      -0.72773925       0.03870232      -0.01077283       0.01202238
O       -0.28837941       1.81032077      -2.30128858      -0.00471718      -0.00115296      -0.02470688
