14
Properties=species:S:1:pos:R:3:forces:R:3 Coordinates=T from=T ORCA-job=T run=T Energy:=T 83.7694203=T energy=-23486.26060477806 pbc="F F F"
C        0.23579608      -0.08905950       0.04168370      -0.01353239       0.01082758      -0.01618636
H        1.67361444       1.30565170       0.00716412      -0.03391408       0.01426800      -0.01671757
Cl      -1.54863851      -0.40639314       0.33741041       0.01961685      -0.01665894       0.00395699
F        2.69122183       0.03306943      -0.19276811      -0.02748178      -0.00092747       0.00902656
C        0.55187531       1.41033320      -0.00422626      -0.02529041       0.00362166      -0.01475774
H        0.78248675      -0.54772926       0.85748901      -0.00950420       0.00118783      -0.02852126
C        0.59070715      -0.76453877      -1.20939306       0.00384759      -0.01811417       0.02078157
N        0.65217215      -1.31610022      -2.21776724       0.01960912      -0.00682056       0.00437648
C        0.07501943       2.08722064       1.19709153       0.00161265       0.00016238      -0.01901243
N       -0.28772891       2.66205380       2.12738272       0.03765105      -0.00093532       0.00569910
C        0.05862492       2.10310304      -1.27238687      -0.00072338       0.01011212       0.00688297
H        0.57809318       1.67976557      -2.13490457      -0.01042054       0.00319971       0.01568518
H       -1.01989402       1.97727139      -1.41613629       0.01136567       0.00876472       0.01468041
H        0.27583121       3.17314731      -1.23458413       0.01221363       0.00072056       0.00826747
