15
Properties=species:S:1:pos:R:3:forces:R:3 Coordinates=T from=T ORCA-job=T run=T Energy:=T 82.2292668=T energy=-22482.36058652156 pbc="F F F"
C        0.34138416      -0.05379881      -0.21260054       0.03031459      -0.03452260      -0.00790712
H        1.55520805       1.59794545      -0.44212931       0.01734323      -0.01700383      -0.04929572
Cl      -1.36997519      -0.54689168       0.18786778       0.00765697      -0.00545015       0.00763920
F        2.08241800      -0.15292546       1.69189087      -0.01183182       0.01780219       0.00768334
C        0.49107175       1.46309961      -0.21983880       0.02340553      -0.02307426      -0.00482443
H        1.05961301      -0.38411479       0.64298579      -0.03139264       0.00183589       0.00972682
C        0.68593695      -0.65248685      -1.49184109      -0.04128860       0.03209872       0.05869552
N        0.99739053      -1.14644680      -2.48457506       0.02965396      -0.03839982      -0.04408945
C        0.26452832       2.03521993       1.17588899      -0.00385145      -0.00237284      -0.00732647
H       -0.78426805       1.94438827       1.47876324      -0.02842113      -0.00048359      -0.00471067
H        0.90676862       1.46220894       1.85582167       0.02034773       0.01905773      -0.01398534
H        0.53274026       3.09882551       1.17955120       0.01783518       0.00797002       0.07458763
N       -0.28255074       2.08120745      -1.29921782       0.00899889       0.01600917       0.00833823
H       -0.07861214       3.07387979      -1.30945115      -0.03353661       0.03540773      -0.00310906
H       -1.26975924       1.99483905      -1.07672472       0.00226972      -0.00646822      -0.01029413
