12
Properties=species:S:1:pos:R:3:forces:R:3 Coordinates=T from=T ORCA-job=T run=T Energy:=T 131.7775315=T energy=-88743.49091960673 pbc="F F F"
C        0.99846907      -0.05504558      -0.25362628       0.00149195      -0.03446059       0.02159538
H        1.79985902       1.92213183      -0.55173349       0.06309090      -0.00421674       0.04838653
Br      -2.24657564       0.48421854       1.23321440       0.01498331      -0.01396342       0.00581369
Cl       2.26456622      -0.57987628       0.91802080       0.01924975       0.00538505       0.02102769
C        0.85727414       1.46668186      -0.23232049       0.00884095      -0.01209884      -0.02030532
H        0.05568071      -0.48602185       0.10030965      -0.01181289       0.00263445      -0.01549390
H        0.65486817       1.73544181       0.81396146       0.01416393       0.01651170      -0.04354001
C        1.35204083      -0.58978077      -1.57024082      -0.02765910       0.06338074      -0.04695495
N        1.66077191      -1.02228283      -2.59015032      -0.01348453       0.01708226       0.04005298
N       -0.19905359       1.83211565      -1.15740511      -0.03139885      -0.02012316      -0.00075631
H       -0.23036273       2.84094554      -1.24510736       0.01716309      -0.03161376      -0.00626143
H       -1.07879549       1.54984387      -0.72115005      -0.03739472       0.01651746      -0.02074181
