12
Properties=species:S:1:pos:R:3:forces:R:3 Coordinates=T from=T ORCA-job=T run=T Energy:=T 33.4877678=T energy=-78935.88822537205 pbc="F F F"
C        0.29319129      -0.02547516      -0.20031521       0.00202394      -0.01472268       0.00189403
H        1.52465705       1.61112943      -0.56100150      -0.03022420       0.02544021      -0.00723837
Br      -1.54332240      -0.54190529       0.26677923       0.00593128       0.00995573      -0.01696596
F        2.04284196       0.05117591       1.75879968       0.00188347      -0.01162576       0.00777627
C        0.49369041       1.48774458      -0.18519002       0.00282236      -0.02466861      -0.00850545
H        0.98951540      -0.38666595       0.61774392      -0.00039391       0.03343618       0.02112547
H       -0.19128048       1.98136622      -0.88913273       0.00861537      -0.00564450       0.03690307
C        0.60776209      -0.59648690      -1.49784424      -0.01827171      -0.01998181      -0.00051072
N        0.88547202      -1.03297057      -2.52769928       0.00294585       0.00399526      -0.00650216
N        0.31624140       1.97874583       1.16876544       0.02411110      -0.00450957      -0.03847442
H        0.60999658       2.94876655       1.19511939       0.02594415      -0.01042612       0.03288430
H        0.99967596       1.41183270       1.71036334      -0.02319175       0.00860047      -0.00828611
