14
Properties=species:S:1:pos:R:3:forces:R:3 Coordinates=T from=T ORCA-job=T run=T Energy:=T 98.8591431=T energy=-36785.277827964914 pbc="F F F"
C        0.12406270      -0.08333079      -0.11258633      -0.01682267      -0.01387127       0.00511610
H        1.62026625       1.38077641      -0.07740391       0.00005306       0.00743517       0.02621726
Cl      -1.65919426      -0.27195486       0.15775201       0.02481235      -0.00089910      -0.03406890
Cl       3.31671095      -0.04874614       0.62536317       0.02063300       0.00240433      -0.00996492
C        0.52034777       1.38844809      -0.12676285       0.00563412      -0.02037349      -0.02033713
H        0.64849058      -0.57498708       0.70638467      -0.03459626      -0.00709076       0.00505802
C        0.45480265      -0.73559057      -1.37891361       0.00886773       0.00151802       0.01910448
N        0.64457206      -1.27881271      -2.37273706       0.00372208       0.00812988       0.02086107
N        0.09246859       2.00303246       1.22828683       0.03304083       0.00555385       0.00158061
O       -0.31764053       3.14651124       1.19558855       0.00502366       0.01352753       0.00356359
O        0.22281234       1.33815867       2.22486269      -0.01593385      -0.01345793      -0.00568274
N        0.02454006       2.10969571      -1.23371415      -0.01945511       0.00326052       0.00970839
H        0.44726048       3.02443937      -1.28436782      -0.00300269      -0.00778783      -0.00478446
H       -0.97980213       2.22283449      -1.18681107      -0.02404383       0.01352842      -0.01189989
