15
Properties=species:S:1:pos:R:3:forces:R:3 Coordinates=T from=T ORCA-job=T run=T Energy:=T 78.2305082=T energy=-147336.4412734191 pbc="F F F"
C        0.21980638      -0.08340333      -0.22974964       0.00641844      -0.06680606       0.09129657
H        1.63234700       1.42083669      -0.50369088      -0.01208247      -0.01885260       0.03990927
Br      -1.66890609      -0.44769973       0.15266599      -0.04394579      -0.00205966       0.04018181
Br       3.12153659       0.08255272       1.93957986      -0.03855272      -0.01698195      -0.01364245
C        0.56369138       1.41240360      -0.22943811      -0.02078331      -0.02912701       0.01344456
H        0.79165872      -0.56496617       0.57125974       0.01625994       0.03728713      -0.03206272
C        0.53686782      -0.73323147      -1.49739995      -0.04580451       0.07339541       0.17114193
N        0.76948382      -1.24324420      -2.49991601       0.07252663      -0.04614024      -0.20877829
N        0.33379718       1.93167082       1.10732105       0.01425005       0.00600471      -0.00482151
H        0.57097106       2.91776001       1.10892863       0.00262012      -0.00611368       0.00635682
H        1.01018236       1.48258407       1.72667389       0.05891764       0.01184056       0.02255123
C       -0.22774650       2.21683391      -1.24566760       0.00566214       0.01582338      -0.01242888
H       -0.21390497       1.75003337      -2.23416965       0.01029190       0.03094990      -0.04093214
H       -1.26327341       2.32608816      -0.91435515      -0.01195434      -0.03980063      -0.02344012
H        0.20743354       3.21608876      -1.33394119      -0.00676356       0.05382724      -0.05288612
