13
Properties=species:S:1:pos:R:3:forces:R:3 Coordinates=T from=T ORCA-job=T run=T Energy:=T 91.5668250=T energy=-18176.22777150248 pbc="F F F"
C       -0.05919518      -0.09236401      -0.05644282      -0.00155833      -0.01586242      -0.00587131
H        2.10465822       1.02778639      -0.01990709      -0.00091099      -0.00112058      -0.00702237
F       -1.44517174      -0.36741784       0.00936339       0.00348669      -0.01119281      -0.02938274
F        2.94228260       0.60219139       0.12383140      -0.00853179      -0.00503454       0.00887745
C        0.26608402       1.34763665      -0.07294005       0.00015554      -0.02201223      -0.01609978
H        0.37865124      -0.54484677       0.83383670      -0.00544348       0.01446347       0.00796816
C        0.44168155      -0.79887451      -1.25011772       0.00507075      -0.02338463      -0.01235986
N        0.80542526      -1.39699448      -2.16120352      -0.00912201       0.02761798       0.01777439
N        0.10450997       2.00597950       1.17828637       0.00775153      -0.00117733      -0.00372660
O        0.05414714       3.22777968       1.19749982       0.01119434      -0.00494795       0.01023136
O        0.06862058       1.31625200       2.19578237       0.02203500       0.02891429       0.03183424
C       -0.02420192       2.12771156      -1.22241821      -0.00939035      -0.00089040      -0.00975478
N       -0.22417517       2.71529222      -2.19705445      -0.00983205       0.00889079       0.00387262
