12
Properties=species:S:1:pos:R:3:forces:R:3 Coordinates=T from=T ORCA-job=T run=T Energy:=T 29.2871368=T energy=-18710.231104398732 pbc="F F F"
C        0.56424861      -0.00194971       0.18866224      -0.00198324      -0.00908772      -0.01419279
H        1.79707124       1.60529258      -0.13915335      -0.00101750       0.02374600       0.00185273
Cl      -1.25871730      -0.38282756       0.37215214       0.03105981       0.00796991      -0.01153715
H        0.46021094      -1.42136249      -1.54160587      -0.00516504      -0.02117448       0.04118177
C        0.73163702       1.49373262       0.08056555       0.00236077      -0.01144035      -0.01158625
H        0.98667731      -0.36677885       1.12809554      -0.02583352       0.03331363       0.00848434
H        0.17127455       1.83435667      -0.80589464       0.00366785      -0.00029545      -0.00485191
C        1.21694745      -0.73557271      -1.04499988      -0.02811609       0.02429675      -0.01567100
N        2.39019694      -0.52027719      -1.34678668       0.01208042       0.01038603       0.00550408
N        0.38479319       2.22485056       1.30514918      -0.00988786      -0.01196246      -0.01309567
H       -0.59128982       2.04381529       1.51749987       0.00034583      -0.03600881      -0.01280686
H        0.44663435       3.21932087       1.11337539       0.03111729      -0.01083093       0.02341766
