14
Properties=species:S:1:pos:R:3:forces:R:3 Coordinates=T from=T ORCA-job=T run=T Energy:=T 92.7553825=T energy=-23487.081634808765 pbc="F F F"
C        0.04703873      -0.08193780      -0.08087310       0.03307113       0.01075528       0.00525160
H        1.49446450       1.47254367      -0.25211931      -0.01677140      -0.05412083      -0.01328060
F       -1.35489688      -0.17723588      -0.17700586       0.01962075       0.00305553       0.00421260
Cl       3.41613210       0.33320426       0.61519837       0.01632118      -0.02264822       0.00232081
C        0.42316462       1.39611894      -0.05192733       0.00973220       0.01735521      -0.00533410
H       -0.13881916       1.84964641      -0.87563682      -0.01012930       0.00375022       0.00479959
C        0.57160408      -0.75316340      -1.28980997      -0.03255409      -0.01489610      -0.00489313
N        0.85462236      -1.25606695      -2.28223233       0.01689928       0.01407270       0.01891235
C        0.38535387      -0.83970013       1.14448762      -0.01524158      -0.00497384       0.00661825
N        0.43465052      -1.44877157       2.11660201       0.01561819       0.01127111      -0.03241230
C        0.11640181       2.05121966       1.28480835       0.00038437      -0.00077695      -0.00864139
H       -0.91168239       1.86962633       1.61290736      -0.01096175       0.00805272      -0.01029256
H        0.80832935       1.67055468       2.04002398      -0.00621795       0.03033929       0.01791619
H        0.26775795       3.13074041       1.20577357      -0.01133024      -0.00174361       0.03043210
