13
Properties=species:S:1:pos:R:3:forces:R:3 Coordinates=T from=T ORCA-job=T run=T Energy:=T 89.1456602=T energy=-78742.21144554418 pbc="F F F"
C        0.39638084      -0.04510967      -0.01102672       0.83313361       0.09898244       0.05362230
H        1.70869633       1.61829832       0.03374284      -0.14326582       0.07373409      -0.08543546
Br      -1.71713800      -0.24546071       0.07731014      -0.20709087       0.06093414       0.02407447
H        2.54908826      -0.36711920       0.06529244      -0.42848317      -0.07107134       0.11030365
C        0.62648088       1.48657520      -0.00679869      -0.08921277      -0.21346838       0.04070755
H        0.19599155       1.87108007       0.94055877      -0.00577284      -0.13454732      -0.28979374
C        0.77217038      -0.72614004      -1.24816192      -0.31325769      -0.18538460      -0.54734866
N        0.75493205      -1.25915057      -2.27623017       0.20746494       0.18780340       0.43996845
C        0.89766508      -0.71962804       1.18800226      -0.08885053       0.15930698      -0.24429176
N        0.84112314      -1.22265572       2.23130948       0.18091733      -0.08605992       0.24002894
N        0.09366347       2.08285027      -1.23072825       0.30406042       0.06652221       0.43499599
H        0.24718002       3.08264455      -1.18321847      -0.00544739       0.00765820      -0.08117291
H       -0.90365373       1.93044812      -1.24513856      -0.23553962       0.03203886      -0.07944578
