13
Properties=species:S:1:pos:R:3:forces:R:3 Coordinates=T from=T ORCA-job=T run=T Energy:=T 172.9966480=T energy=-27982.294914878057 pbc="F F F"
C        0.01156295      -0.03274703       0.02221959       0.00020776      -0.01689164      -0.02246823
H        1.71201522       1.27239010      -0.24426078      -0.00222443      -0.01273824       0.04418596
F       -1.37617970       0.07491184       0.10384727      -0.00063943      -0.00961813      -0.03295583
Cl       3.61500001       0.41092048      -0.21432869       0.03021639      -0.01672650       0.01763062
C        0.61020179       1.35966455      -0.09153503      -0.01988375      -0.02208388       0.00314462
H        0.39368124       1.92882113       0.80903795       0.01660975       0.04041411       0.00159399
C        0.31698803      -0.95271772      -1.09438123       0.00819003      -0.00204689      -0.01405537
N        0.47904088      -1.74544774      -1.90738256      -0.01990037       0.01003813       0.00799591
C        0.44384209      -0.66723786       1.28888533       0.01914945       0.00917240      -0.02282871
N        0.65309307      -1.17665227       2.29557860       0.01627894       0.05388727      -0.01183786
N        0.03495197       2.11799875      -1.23119514      -0.02242721      -0.01910215      -0.01980851
O       -0.05531895       3.31800355      -1.09155377       0.01742327      -0.00534480       0.04083416
O       -0.26696489       1.50738522      -2.23281095      -0.03200441      -0.01571868      -0.00701228
