14
Properties=species:S:1:pos:R:3:forces:R:3 Coordinates=T from=T ORCA-job=T run=T Energy:=T 50.6086697=T energy=-90816.17591490463 pbc="F F F"
C        0.97298671      -0.05166376      -0.07790167       0.00752918       0.01937491      -0.00895986
H        1.31284426       1.93483572       0.61760961       0.00239302      -0.00854917      -0.00017805
Cl      -2.22427846      -0.16567237       0.63912531      -0.03132094       0.02900590       0.00786694
Br       2.90516522      -0.13639504      -0.61500483      -0.00472695       0.03092458       0.00453536
C        0.55768983       1.42982550       0.00835173       0.00993490      -0.00350626      -0.01874832
H       -0.39633026       1.43427533       0.54287457       0.01459613      -0.02270654      -0.02637932
C        0.28294899      -0.81667857      -1.12650094       0.01950059       0.01232799       0.01134355
N       -0.08112687      -1.39183940      -2.05219790      -0.01128274      -0.01048212       0.01950182
C        0.92749692      -0.70610171       1.23542193       0.01845681      -0.01720345      -0.02320957
N        1.04137290      -1.18185468       2.27467496      -0.00641585       0.00438700      -0.00523478
C        0.39215832       2.09005203      -1.35146966       0.00227427      -0.00895735      -0.00284629
H        1.28257450       1.98693658      -1.97977735       0.00736100       0.00022993       0.01365738
H       -0.45961743       1.65254663      -1.87731393      -0.00280269       0.00096325      -0.00494734
H        0.19256580       3.15752934      -1.22340837      -0.00372957      -0.02395022       0.02035350
