13
Properties=species:S:1:pos:R:3:forces:R:3 Coordinates=T from=T ORCA-job=T run=T Energy:=T 112.6794952=T energy=-30783.726714654975 pbc="F F F"
C        1.25799985      -0.05509765      -0.07893512       0.00170712      -0.05190684       0.07119256
H        0.78843917       1.90797110       0.61508637      -0.05866765       0.01722009       0.01367823
Cl      -2.10863988       0.93837300       1.91676097      -0.01930402      -0.00701995      -0.01026647
Cl       3.03177785       0.25427764       0.26622748       0.05333329       0.03020566      -0.01673500
C        0.55991232       1.28700334      -0.25092979       0.06465904      -0.02080095      -0.02546290
H       -0.52431701       1.15633590      -0.24946631      -0.01448386      -0.05862391      -0.00073630
H        0.89692789       1.78642208      -1.15910805       0.04232331       0.06026145      -0.07356040
C        1.25216753      -0.84191108      -1.32432555      -0.00549432       0.06707238       0.02989990
N        1.25235206      -1.46001486      -2.29384024      -0.04723340      -0.01322867      -0.02274014
C        0.68085301      -0.86829745       1.07024120      -0.02241830       0.01263162       0.06033424
H        1.28369663      -1.76040010       1.25805733      -0.03694096       0.00640937      -0.01382427
H        0.61961852      -0.24375869       1.96256091       0.05320988      -0.04072377       0.00142457
H       -0.35222035      -1.13779885       0.84332269      -0.00638335      -0.00682524      -0.00913130
