17
Properties=species:S:1:pos:R:3:forces:R:3 Coordinates=T from=T ORCA-job=T run=T Energy:=T 56.0755598=T energy=-91319.3659669667 pbc="F F F"
C       -0.05226381      -0.12836656      -0.05854778      -0.00294649      -0.03304523      -0.02650957
H        1.56011956       1.19031467      -0.35794536       0.02947707       0.00290061       0.03459706
Br      -2.03575450      -0.11108252       0.07455190       0.03292948      -0.00548829       0.02831274
Cl       3.53581733       1.16997062       1.41040378       0.05817860      -0.01437438       0.04959175
C        0.50054901       1.31748301      -0.09453181      -0.05309884       0.02213875       0.02043468
C        0.25468030      -0.81375606      -1.32290502      -0.14273367       0.11707719       0.20799786
N        0.50893573      -1.39586643      -2.27995958       0.05805050      -0.06163117      -0.14109048
C        0.50921161      -0.91925733       1.11942212      -0.06102623       0.00652561      -0.05871897
H        1.59922920      -0.81914628       1.11867911       0.03672711      -0.05628946       0.01098323
H        0.13441336      -0.50027297       2.05284212      -0.00608829       0.08024455      -0.04069899
H        0.21471849      -1.96819393       1.05722009       0.04652750      -0.02480877      -0.01668869
N        0.37141832       1.90646841       1.23085308      -0.04511873       0.00123975       0.02586735
H        0.37897550       2.91422287       1.12487986       0.04550878      -0.01862794      -0.03955535
H        1.23754872       1.68763742       1.73013738      -0.01324406       0.05594388      -0.01675516
N       -0.12771938       2.08091041      -1.15035311       0.03198515      -0.06585621      -0.06459257
H        0.48557927       2.83078693      -1.43607108       0.02461577       0.04911404       0.01216491
H       -0.99815691       2.48424031      -0.82628111      -0.06252008      -0.06313606       0.03321136
