18
Properties=species:S:1:pos:R:3:forces:R:3 Coordinates=T from=T ORCA-job=T run=T Energy:=T 98.7810425=T energy=-13746.230397666293 pbc="F F F"
C        0.40164166      -0.07871506      -0.46821898      -0.04050988      -0.00841066      -0.03166237
H        0.82686692       1.69562798      -1.55068754      -0.13999233      -0.05981492       0.02317467
F       -0.44256285      -0.45630786      -1.54531133      -0.07259222      -0.00390700      -0.09187163
F        2.02132725       0.25082924       2.28973993      -0.06047129       0.01177073      -0.02245883
C        0.53531181       1.46598100      -0.51406381       0.02183514       0.06059603       0.01813722
C        1.72103363      -0.67068593      -0.78457463       0.04104206       0.10304177       0.06906560
N        2.74531159      -1.09466908      -1.08577063       0.03757331      -0.09832845      -0.10311478
C       -0.14309702      -0.64635275       0.81697090      -0.03274384      -0.02534923       0.07422637
H        0.63094011      -0.46568126       1.60250787      -0.08178211      -0.03120553       0.01677702
H       -1.07751162      -0.14077426       1.07645381       0.00329256      -0.02757110      -0.02226652
H       -0.35249437      -1.71347061       0.68327927       0.09048960       0.03155496       0.02099440
N        1.55228436       1.98898437       0.37361716       0.33716878       0.04000079       0.01402625
H        2.46339552       1.91499016      -0.07745189      -0.25341553      -0.01699011       0.04388092
H        1.66850691       1.38225869       1.23256086      -0.04404108       0.10775186       0.04188005
C       -0.81408896       2.13559027      -0.23705233      -0.06309062       0.00907256      -0.01095749
H       -1.63839173       1.69250352      -0.80765315       0.08725657      -0.07553276      -0.00046088
H       -1.06491548       2.09193335       0.82743938       0.09237634      -0.03136452      -0.03232054
H       -0.74685706       3.19220905      -0.50542368       0.06852578       0.03194506       0.01255647
