18
Properties=species:S:1:pos:R:3:forces:R:3 Coordinates=T from=T ORCA-job=T run=T Energy:=T 64.9227911=T energy=-81076.72175720285 pbc="F F F"
C        1.21119480      -0.00118106       0.16172515      -0.01600447      -0.02101642       0.02246489
H        1.81314423       1.76252724      -0.85075246      -0.00088109       0.00147883      -0.01608686
Br      -3.03266949      -0.71490962      -0.89311844      -0.01655007       0.02209693       0.00871712
F        2.47207477      -0.12673603       0.80383108      -0.01276255      -0.00082132      -0.00666989
C        1.03597065       1.50343579      -0.11224972       0.00562588      -0.00820523       0.01965227
C        1.37401424      -0.72874610      -1.11511638       0.04397950       0.00688133      -0.00549464
N        1.57568076      -1.27951358      -2.10276617      -0.00079277      -0.01247481      -0.02659552
C        0.15460699      -0.63008081       1.03760025      -0.02655425      -0.00962040       0.03054788
H        0.01038104      -0.00300371       1.91850548       0.01809043       0.01435836      -0.00079869
H       -0.79723050      -0.73001999       0.49909454       0.00474708       0.02404616       0.00995742
H        0.48869973      -1.62282290       1.34792273       0.00553376      -0.00533985      -0.02511950
N        1.23606066       2.19985930       1.15531873      -0.01033488       0.01130320       0.03680325
H        1.06682592       3.18889880       1.02763329      -0.02146383       0.01522623      -0.01324793
H        2.19185613       2.08174277       1.46460206       0.01548637       0.00409154      -0.01186740
C       -0.33374484       1.83993312      -0.68015555       0.01298404      -0.00596921      -0.00861830
H       -0.62353155       1.19305818      -1.51068077       0.00908871      -0.01647215      -0.00356652
H       -1.10868390       1.72127815       0.07941604      -0.00724920      -0.02550293      -0.03437053
H       -0.34058985       2.87684205      -1.03428932      -0.00411768       0.00715614       0.01755893
