17
Properties=species:S:1:pos:R:3:forces:R:3 Coordinates=T from=T ORCA-job=T run=T Energy:=T 142.4760286=T energy=-34363.594098748865 pbc="F F F"
C       -0.00743754      -0.15451904      -0.01905195       0.00285260      -0.00133876       0.06759033
H        1.58498691       1.25676162      -0.13147752      -0.06919587       0.00687029      -0.02506565
Cl      -1.83111306      -0.20883313       0.07290311      -0.01721343      -0.00923570      -0.01538562
Cl       3.63590258       0.82246065       0.83591119      -0.00793016      -0.00861705       0.06106104
C        0.48127016       1.31209811      -0.05054518      -0.03003696      -0.02013008       0.00655675
C        0.35717765      -0.85653529      -1.26022773      -0.02896963       0.02897554      -0.07850724
N        0.63915775      -1.43266121      -2.21411927      -0.01878817       0.03453031       0.06659687
C        0.55669354      -0.91690297       1.17182208       0.04839177       0.00968001       0.05433372
H        1.65049647      -0.86832841       1.13653270      -0.00910975       0.00889080       0.02454548
H        0.21861470      -0.45291757       2.09803497      -0.01068752      -0.01789293       0.02667677
H        0.20826661      -1.95016082       1.15739628       0.03865668      -0.03654274      -0.04892185
C        0.16941638       2.09834283       1.22655849       0.02563675      -0.02442193      -0.02941978
H       -0.90114116       2.09775837       1.45226207       0.03115740       0.04062413      -0.01002518
H        0.72827700       1.68670103       2.06652979       0.05829247      -0.01853192      -0.02614708
H        0.50828657       3.12739005       1.09425807      -0.03836716      -0.00249201       0.01623891
C       -0.05810983       2.02147422      -1.21285301       0.04719639       0.00513004      -0.06776119
N       -0.48260596       2.61185726      -2.10390603      -0.01477238       0.00964612      -0.01667421
