15
Properties=species:S:1:pos:R:3:forces:R:3 Coordinates=T from=T ORCA-job=T run=T Energy:=T 128.5701442=T energy=-80005.36385973693 pbc="F F F"
C        1.13940098       0.01251218       0.01073483      -0.00261271       0.00869526      -0.00193546
H        1.57154096       2.11456819       0.29971309       0.01327236       0.00566965      -0.01530109
F       -1.56833581       0.19488898      -0.13358564       0.00352048      -0.00078404      -0.02016174
Br       3.15999538      -0.07599778      -0.05306682       0.01496549      -0.00730698      -0.00821345
C        0.70421131       1.49653722       0.04971687      -0.00820897       0.01855564      -0.00111438
H       -0.03129878       1.54829140       0.85757216      -0.00769162       0.02064981       0.01235282
C        0.72324863      -0.71063165      -1.20026286      -0.01987965      -0.02574952       0.01676766
N        0.52336200      -1.38498525      -2.11020695       0.02710084       0.03135083      -0.02096277
C        0.67042968      -0.74204817       1.24396179       0.00366540       0.00412827      -0.00421096
H        1.03567704      -1.77116114       1.25027052      -0.01476403      -0.00566897       0.00879507
H        1.01397987      -0.22817054       2.14667965       0.00541866      -0.01384519       0.00352771
H       -0.42404671      -0.69195950       1.14646887       0.00210545      -0.00405166       0.01627911
N        0.12358595       1.90159901      -1.21909179      -0.01249202      -0.01642876      -0.01358199
H       -0.11381634       2.88662398      -1.15701020       0.02433809      -0.01561731       0.00495637
H       -0.76598438       1.37359060      -1.18950484      -0.02945512       0.00845944       0.01098701
