15
Properties=species:S:1:pos:R:3:forces:R:3 Coordinates=T from=T ORCA-job=T run=T Energy:=T 116.9517299=T energy=-84064.86831644457 pbc="F F F"
C        0.05395327      -0.07002211       0.04698092      -0.00245741       0.04061613       0.00430641
H        2.22850388       1.11077223       0.26984905       0.02358062      -0.06596240      -0.02712853
Br      -2.09042053      -0.27173704       0.08945665      -0.02396026      -0.07168917      -0.05067779
F        3.12529682       0.85470852       0.51627032      -0.00404503      -0.00175604      -0.01724388
C        0.46416772       1.31808415       0.01203180       0.10678374       0.03098988      -0.00054586
H        0.33278480       1.85530656      -0.91910583       0.01828622      -0.02093551       0.00494018
C        0.39743673      -0.69162805      -1.23503672      -0.04006646      -0.04375949      -0.02284512
N        0.72432656      -1.21259883      -2.20757516      -0.04781632       0.03971494      -0.00775667
C        0.52334532      -0.96856281       1.18518497       0.02851003       0.04354996      -0.00237550
H        1.61549043      -0.97503777       1.16056431       0.04746006       0.00540063       0.01510723
H        0.20196023      -0.54277045       2.13058421      -0.06758628      -0.07805629       0.02169247
H        0.14149621      -1.98279536       1.05011071       0.01674757       0.05331169       0.07795461
N        0.19612780       2.17110939       1.10180722      -0.01638612       0.02617376      -0.02851305
O        0.23685742       3.38002199       0.88610240      -0.01808879       0.14427903       0.01450418
O       -0.02637954       1.71249261       2.22156269      -0.02276928      -0.09166678       0.02766954
