15
Properties=species:S:1:pos:R:3:forces:R:3 Coordinates=T from=T ORCA-job=T run=T Energy:=T 124.9872581=T energy=-12920.99930166455 pbc="F F F"
C        0.31030667       0.04621325       0.14009944      -0.01345605      -0.01506089      -0.00659928
H        1.62553922       1.70758372       0.09882535      -0.02109904       0.00071241       0.04379462
F       -1.08734217      -0.16757566       0.16327435      -0.02391113      -0.00195685       0.00770682
H        0.77693251      -1.76656247      -0.95900114      -0.01333377       0.04872560      -0.02991305
C        0.53938474       1.56139430       0.11620032      -0.02168021       0.01412718      -0.01138616
C        0.91058103      -0.63358508      -1.11834181       0.03542281      -0.03858223       0.02595300
N        1.47603220      -0.08299132      -2.07120088       0.00100372      -0.01534419      -0.02083321
N        0.78500377      -0.52818672       1.38801855       0.00188605      -0.01822034      -0.00407772
H        1.79838765      -0.57930036       1.32696639      -0.00346350       0.03815275      -0.01036487
H        0.47441603      -1.49586091       1.38332190       0.00288541      -0.03410186       0.00089325
C        0.01373891       2.20069174       1.33953198       0.08620434      -0.02214095      -0.00703336
N       -0.39405166       2.72093303       2.28086021      -0.02975176       0.04724809      -0.00186786
N        0.00763276       2.22274068      -1.06800123      -0.07105283      -0.01039604      -0.04228153
H       -0.96682454       1.94555969      -1.15322721       0.03893742      -0.00576807       0.02244208
H        0.50275492       1.72899077      -1.82234214       0.02727179       0.01284450       0.03179179
