16
Properties=species:S:1:pos:R:3:forces:R:3 Coordinates=T from=T ORCA-job=T run=T Energy:=T 226.1014452=T energy=-24993.961091102563 pbc="F F F"
C        1.28662554       0.03141117      -0.02008587       0.02537632      -0.19019334      -0.00223737
H        1.74757250       2.07469739      -0.14868009      -0.04080007       0.02174400      -0.08089234
Cl      -2.52055994      -0.55618707       1.57287991       0.03903266       0.02167633      -0.00638901
F        2.65707720       0.09563993       0.37498030      -0.09859841       0.01725609       0.02807025
C        0.81153389       1.51277907      -0.06965526       0.05148956      -0.21091204      -0.07389231
C        1.38607632      -0.58466078      -1.38813408       0.04932471       0.01352742       0.09146973
N        1.45826791      -1.10820700      -2.41006373       0.01552010       0.04898315       0.11661155
N        0.58955817      -0.74095805       0.90592084       0.09588132      -0.05796603      -0.04728865
H        0.74997526      -1.73406033       0.82606763       0.01554946       0.02929500      -0.10371366
H       -0.41208801      -0.56505037       1.06253115      -0.03915659       0.05600986      -0.01789656
C        0.05980013       1.95550013       1.18542983       0.00977572       0.03412697      -0.04297709
H       -0.89544097       1.43403009       1.28468451      -0.01696620       0.06116556       0.06645325
H        0.66237803       1.76256582       2.07321855       0.01169864      -0.05659484      -0.00630596
H       -0.12589659       3.02590034       1.11279640      -0.06496222       0.14643240       0.04323372
C        0.04675847       1.81493246      -1.28547441      -0.06033435       0.06810239      -0.03880052
N       -0.51481859       2.09801499      -2.24802632      -0.00498888       0.02127571       0.06700663
