16
Properties=species:S:1:pos:R:3:forces:R:3 Coordinates=T from=T ORCA-job=T run=T Energy:=T 203.3409015=T energy=-15186.973165134184 pbc="F F F"
C        0.01482158      -0.15097919       0.14735939       0.02094517       0.00766499      -0.04395697
H        1.59521531       1.23855954       0.19208428       0.01640123      -0.04588596      -0.01329734
F       -1.36375507      -0.17312615       0.48558460       0.02824879       0.00848212      -0.03180576
F        2.97294512       0.24051852       0.40769893      -0.01384657      -0.00260179      -0.02246814
C        0.49051715       1.31629187       0.03649468       0.01828964      -0.00929794      -0.00349328
C        0.01555363      -0.81700543      -1.19904562      -0.02356549      -0.00382799       0.00055091
N        0.01122403      -1.36958144      -2.20848004       0.02633228      -0.00272353       0.03360915
N        0.77607749      -0.82194599       1.11205138      -0.02611502      -0.00827950      -0.02373177
H        1.79720121      -0.52672175       0.95972791      -0.01305619       0.00974436       0.03856471
H        0.65902657      -1.82459606       1.03912137       0.01491413       0.02529632      -0.00615097
C       -0.09088502       2.08762915       1.13440815      -0.01538497       0.00810582      -0.03593463
N       -0.53358348       2.75602556       1.96065829       0.01593459      -0.00103434      -0.01083895
C        0.19284767       1.97254930      -1.31481328      -0.00004643      -0.00236157       0.02847608
H        0.82039477       1.51553106      -2.08331851      -0.04522206      -0.00506223       0.00635460
H       -0.85685694       1.86205032      -1.60545655       0.00830542       0.00963440       0.01844850
H        0.43093782       3.03827164      -1.28363257      -0.00722812      -0.00535794       0.04071371
