15
Properties=species:S:1:pos:R:3:forces:R:3 Coordinates=T from=T ORCA-job=T run=T Energy:=T 46.3149200=T energy=-22484.277505027392 pbc="F F F"
C        0.00095747      -0.16434471      -0.04394793       0.00347174      -0.03436591      -0.00662620
H        1.53917278       1.29518678      -0.26499582       0.04422435      -0.02423329       0.00585201
F       -1.40832487      -0.16732547       0.17198585       0.00049502      -0.01358492      -0.01869822
Cl       3.50287182       0.44756852       1.60787643      -0.02017715      -0.01169043      -0.00650926
C        0.46126665       1.28847314      -0.08355094       0.00896553      -0.02192229      -0.03453643
H       -0.03215200       1.76263700      -0.93704217      -0.03815869       0.05509243       0.00012360
C        0.12395286      -0.77803421      -1.40148191      -0.02249986      -0.00998429      -0.04761681
N        0.23436853      -1.26356287      -2.43858387      -0.00166931       0.00282140       0.01930739
N        0.63460513      -0.91517138       0.95592982       0.01537470       0.01269140       0.02534384
H        1.55831190      -0.55367039       1.22501347      -0.02303457       0.02329198       0.02475030
H        0.67549570      -1.90386667       0.75901406       0.00864188       0.03007599       0.01268987
C        0.15809901       2.03358955       1.20839398       0.01164879      -0.00725222      -0.00413372
H       -0.91543521       2.05510192       1.41199023      -0.00807491      -0.04002357       0.01348561
H        0.67831994       1.56982447       2.04714250       0.00768008       0.01579021       0.01887776
H        0.51791257       3.06243233       1.12897530       0.00659524       0.02174915       0.01068248
