14
Properties=species:S:1:pos:R:3:forces:R:3 Coordinates=T from=T ORCA-job=T run=T Energy:=T 80.8149606=T energy=-80442.2990833365 pbc="F F F"
C        0.08939325      -0.03395897      -0.07981096       0.00716837       0.01765039      -0.01298253
H        0.19754490       1.87309176      -1.09048392       0.03059674      -0.03298030       0.00086548
Br      -1.67328222      -0.57139672      -0.92383647      -0.01236016       0.00774400      -0.01074923
F        2.64636593      -0.01219054       1.32358120       0.01640924       0.03914405       0.00575856
C        0.10519601       1.51738299      -0.05704035      -0.00771132       0.00977185       0.00646962
H       -0.88068497       1.82419639       0.30048197      -0.01955227       0.02784515       0.01250943
C        1.08302011      -0.56480528      -1.04840410       0.01580857      -0.03942578      -0.00624568
N        1.80832558      -0.98789320      -1.83540087      -0.02792649       0.01428071       0.00606780
N        0.17659548      -0.57298671       1.22925529       0.02758275       0.00521613      -0.02934386
H        1.20580828      -0.37005518       1.48644970       0.00300351      -0.01568682       0.01972804
H        0.10947113      -1.58355731       1.16772641      -0.00008237      -0.01635473       0.00157246
N        1.12718537       2.10441405       0.78400704       0.00282356       0.00279751      -0.01420299
H        1.95918340       1.49034036       0.79443742      -0.01254702      -0.03251292       0.01312924
H        0.80587857       2.02870720       1.74277127      -0.02357909       0.01115056      -0.00368849
