14
Properties=species:S:1:pos:R:3:forces:R:3 Coordinates=T from=T ORCA-job=T run=T Energy:=T 77.4139861=T energy=-26978.081569345773 pbc="F F F"
C        0.11249919      -0.19307188       0.04089157       0.00922352      -0.00819014       0.00767661
H        1.75566676       1.10293026       0.30898591       0.00059497       0.02095938       0.01190179
Cl      -1.80755462      -0.10063941       0.26290233      -0.01090274       0.01881662      -0.02126942
F        2.88792007       0.24266791       1.18418390      -0.00384993      -0.02531008      -0.00375958
C        0.67197794       1.23280046       0.04103392       0.01106439       0.00288962      -0.00695897
H        0.49781679       1.73696868      -0.90432266      -0.01458279       0.01553963      -0.01144903
C        0.19284117      -0.71095685      -1.34434885       0.01188250       0.00216318       0.01202997
N        0.33255412      -1.13345736      -2.40530300      -0.02076851      -0.02899094      -0.01972018
N        0.71108193      -0.99193718       0.98644217       0.02781118       0.01162967      -0.00598449
H        1.68831322      -0.60034876       1.24097920      -0.01665664       0.01858704       0.01483532
H        0.67508383      -1.97554265       0.76937641       0.00739874      -0.01891712      -0.00084657
N        0.10268459       2.12007063       1.08615599       0.01182988       0.00158819       0.02531572
O       -0.14203973       3.26482829       0.74449701       0.01205316      -0.01789194       0.00685587
O       -0.03283455       1.69156440       2.20527965      -0.00795793      -0.00241990       0.01016616
