16
Properties=species:S:1:pos:R:3:forces:R:3 Coordinates=T from=T ORCA-job=T run=T Energy:=T 90.6097998=T energy=-22289.721008770233 pbc="F F F"
C        0.07231554      -0.17886563       0.03342868       0.20538845      -0.10629749      -0.07822941
H        1.63785509       1.18697498       0.02489825      -0.33661647       0.14544884      -0.12019287
Cl      -1.96123799      -0.22319267       0.28546748      -0.14209622       0.11958960      -0.06935514
H        2.97259598      -0.00114094       0.93103455      -0.57653496      -0.20964297      -0.08337893
C        0.52191296       1.28163969      -0.01381560      -0.10128404       0.24049580      -0.21457168
C        0.15078401      -0.82916703      -1.29384246      -0.17496463       0.27819880      -0.10881803
N        0.30134738      -1.31884173      -2.32518944       0.00505576      -0.07541964       0.07773405
N        0.72134652      -0.80745783       1.02212120       0.01582606      -0.24268726       0.23748997
H        1.88089921      -0.42078985       1.00514414       0.94570705       0.09758037       0.41862088
H        0.67790373      -1.81418533       0.93930148       0.02137459      -0.09772713       0.01530132
C        0.14972980       2.03542542       1.18813252      -0.26325232       0.00227494       0.36136803
N       -0.15087251       2.71165705       2.07300582       0.19291515      -0.24631779      -0.34481264
C        0.05825656       2.04575447      -1.24830332      -0.10062574       0.14479109      -0.42428137
H        0.47106717       1.60769389      -2.15853804       0.22292760       0.04786902       0.01935177
H       -1.02239617       2.03865122      -1.38750034      -0.18694275      -0.19784763       0.33401243
H        0.34099621       3.09495024      -1.18965868       0.26358098       0.08454607      -0.02397134
