15
Properties=species:S:1:pos:R:3:forces:R:3 Coordinates=T from=T ORCA-job=T run=T Energy:=T 150.6770977=T energy=-29489.134038157714 pbc="F F F"
C       -0.02679952      -0.09286057      -0.00159219       0.00900935       0.00045072       0.02442815
H        1.65106124       1.24543685      -0.14447897       0.03407491      -0.02394550      -0.04825082
F       -1.41692183       0.02358891       0.04160812      -0.00687231      -0.03381734      -0.01608263
Cl       3.48826795       0.01136552       0.43190279      -0.01865613       0.03115297       0.04608026
C        0.55402737       1.33334596      -0.04154466       0.02611234      -0.00386053       0.02441827
C        0.25229759      -0.87139850      -1.24312956      -0.02737818       0.00735042       0.05948809
N        0.41763727      -1.59548729      -2.11885079      -0.02375816      -0.01717233      -0.03153886
N        0.43840220      -0.72901914       1.17374932       0.10368820      -0.00363469      -0.08641628
H        1.45424565      -0.58514157       1.24331672       0.04785134       0.02067361       0.04733718
H        0.28818202      -1.72715937       1.11195782      -0.09159086      -0.05279600       0.02035881
C        0.22311003       2.07241956       1.17421758      -0.04551839       0.01129007       0.03311330
N       -0.01020362       2.68025206       2.11946294       0.02768698      -0.04790383      -0.02387038
N        0.01895218       2.07726048      -1.24203015       0.00770788       0.06063163       0.02110558
O       -0.73530599       3.00035773      -1.04882534      -0.01151552       0.04787202      -0.09297064
O        0.40165563       1.68414839      -2.31843143      -0.02496631       0.00734586       0.01402116
