17
Properties=species:S:1:pos:R:3:forces:R:3 Coordinates=T from=T ORCA-job=T run=T Energy:=T 71.4020644=T energy=-21286.06656777446 pbc="F F F"
C        0.26351457      -0.04861382       0.11810889       0.12963858       0.00848365      -0.13413310
H        1.70424760       1.47179814       0.23560061      -0.01489425      -0.06455341       0.02714587
Cl      -1.52637242      -0.27682595       0.01150760      -0.08223223       0.01872771      -0.15642950
H        2.09839888      -0.30743222      -0.96850704      -0.00062325      -0.25170763       0.08278120
C        0.60661306       1.44941126       0.14327081       0.03391879       0.04093146       0.03201664
C        1.00820925      -0.67836819      -1.14432642      -0.22497135      -0.10256799      -0.27367563
N        0.58772746      -1.32648034      -2.09776217       0.08710248       0.15085378       0.32122955
N        0.66016387      -0.67805397       1.38332523       0.05407635       0.07710663      -0.12483560
H        1.67924702      -0.66266396       1.37454153       0.03273926      -0.10096125      -0.00086142
H        0.39964808      -1.65891496       1.28839326       0.14009160       0.08579256       0.03470117
C        0.02183036       2.20360025       1.32470924      -0.03206678      -0.05230899       0.00553081
H       -1.06779575       2.24833943       1.21859816      -0.01197949       0.07478838       0.06171730
H        0.23214502       1.66706843       2.25211665       0.06157903       0.12613631       0.02530299
H        0.41693146       3.22775783       1.35799059      -0.03845007      -0.11708853       0.07775043
N        0.26273399       2.14749480      -1.09500367      -0.67696829      -0.12280076      -0.48477289
H       -0.67735983       2.54423475      -0.94839105       0.53259371      -0.46669909      -0.47205421
H        0.21375205       1.46930295      -1.88769746       0.00947835       0.68782208       0.97597592
