15
Properties=species:S:1:pos:R:3:forces:R:3 Coordinates=T from=T ORCA-job=T run=T Energy:=T 13.3021905=T energy=-77058.9536459761 pbc="F F F"
C        0.95634771       0.03549748      -0.09267242      -0.01959627      -0.01013198      -0.01821241
H        1.93223457       1.78038129      -0.90369811      -0.00285589       0.00767520       0.01182226
F       -1.73572852      -0.25235481      -0.15148098      -0.01011703       0.01330243      -0.02966680
Br       2.60925130      -0.49526841       0.91879692       0.01420371       0.00691686      -0.00056558
C        1.02214674       1.53836251      -0.33627261      -0.00133036      -0.00779164       0.00895303
H        0.09276502      -0.20706941       0.53267566      -0.00183142       0.00677776       0.02234451
H        1.11757069       2.03778978       0.63431467      -0.00359388       0.00899712       0.00415937
C        0.80901764      -0.79492596      -1.34661134      -0.00125755       0.00616523      -0.02885050
H       -0.26049382      -0.70441743      -1.57149465      -0.01160041      -0.00133540       0.02091389
H        1.44845446      -0.44596471      -2.16658291       0.01949501      -0.01155552      -0.02052210
H        1.01849536      -1.85033580      -1.15310406      -0.00403661       0.02069760       0.00036112
C       -0.23921191       2.03533769      -1.05534057       0.00553028      -0.01474047      -0.00016926
H       -0.15817689       1.88157347      -2.13790282       0.00432918      -0.01091244       0.00018216
H       -1.09903301       1.43937741      -0.70122759       0.00293730      -0.00530415       0.01505110
H       -0.38695309       3.10884611      -0.88283217      -0.00482673      -0.01761222      -0.01485026
