15
Properties=species:S:1:pos:R:3:forces:R:3 Coordinates=T from=T ORCA-job=T run=T Energy:=T 13.3972530=T energy=-9729.624795790332 pbc="F F F"
C        0.98815768       0.02705345      -0.03314714      -0.00269835       0.01514250      -0.00177773
H        1.98860569       1.74143080      -0.83292934      -0.00686561      -0.01313350       0.02271881
F       -1.79187004      -0.23663957      -0.35561275      -0.00303901       0.00828967      -0.01218979
F        2.18249345      -0.31964175       0.67431882       0.01254925      -0.00468130       0.00963832
C        1.05405147       1.52227849      -0.29342927      -0.01979257       0.01678631      -0.00112350
H        0.12353691      -0.20309056       0.59338969       0.01286750       0.00644708       0.01019273
H        1.13505692       2.02069145       0.68126461       0.00675662      -0.00700288       0.00369683
C        0.85469442      -0.82134356      -1.27271536       0.00144951       0.00637213      -0.00562477
H       -0.21940229      -0.78067633      -1.50150394       0.00755298       0.01360277       0.00762528
H        1.48619863      -0.46964569      -2.10007366      -0.00423993      -0.01678219      -0.00456856
H        1.12374708      -1.85628018      -1.03398331      -0.01085930       0.01094156      -0.02021798
C       -0.17506212       2.03420204      -1.05132993      -0.01949186       0.00176165      -0.01962051
H       -0.05089832       1.89242028      -2.13213681       0.00461963      -0.00840003       0.01146864
H       -1.05392905       1.43180779      -0.75142498       0.01754882      -0.01155602       0.00758008
H       -0.33254476       3.10639387      -0.87524724      -0.00028008      -0.02195578      -0.01541927
