17
Properties=species:S:1:pos:R:3:forces:R:3 Coordinates=T from=T ORCA-job=T run=T Energy:=T 34.6304554=T energy=-145896.1828900675 pbc="F F F"
C        0.23805067      -0.07334825      -0.12403524      -0.02978597       0.00394068       0.02190288
H        1.45304151       1.57556816      -0.38284883      -0.03427893      -0.02413958      -0.01652418
Br      -1.65261315      -0.58337792       0.31297710       0.00192595       0.01515522      -0.03899436
Br       3.58824136      -0.06806292       0.89768810       0.01335020       0.04270804       0.01568073
C        0.38680885       1.44341800      -0.15667390      -0.01813874       0.00391213       0.01671428
H        0.81764191      -0.46623238       0.70960357      -0.00174616       0.00343565       0.00395919
C        0.64627775      -0.74801412      -1.41170687      -0.00375330      -0.00706599       0.01383120
H        0.07564840      -0.35727930      -2.25596861       0.02850573      -0.00583728      -0.01502257
H        1.71145503      -0.53777778      -1.55023764       0.00183119      -0.01953348      -0.01911360
H        0.52468741      -1.83073149      -1.34566486      -0.01847284      -0.01731573      -0.00436298
C        0.13340310       2.08653747       1.20475555       0.01349764       0.00633489       0.00585322
H       -0.90925109       1.95992866       1.51764106       0.02278444      -0.00110844       0.00494598
H        0.79155428       1.64567517       1.95890196       0.00676609      -0.01102425      -0.00583372
H        0.35010319       3.15995936       1.16371345       0.00153900       0.00183619      -0.02010397
N       -0.38684591       2.02120155      -1.26082823      -0.00131850       0.00661007       0.01869331
H       -0.16465701       3.00658724      -1.33772261       0.00660593       0.00055680       0.00698416
H       -1.37652916       1.96133712      -1.04052279       0.00936631      -0.00563912       0.02421425
