14
Properties=species:S:1:pos:R:3:forces:R:3 Coordinates=T from=T ORCA-job=T run=T Energy:=T 15.4882209=T energy=-87303.20872748482 pbc="F F F"
C        0.30428860      -0.03017896      -0.09404564      -0.00649340      -0.01195601      -0.02082676
H        1.62350239       1.56650451      -0.35427486      -0.03810481       0.00982783       0.00224791
Cl      -1.45036060      -0.32422507       0.40251236      -0.00082293       0.01785175      -0.00888606
Br       3.82092505      -0.13658531       0.45711744       0.03646312       0.01866216       0.01475359
C        0.54865852       1.46518939      -0.16679992      -0.00257590      -0.01947589       0.01911189
H        0.90214018      -0.43759045       0.72078216      -0.03586826       0.01514541      -0.00543818
H        0.35079212       1.89376878       0.82692172       0.03760954       0.00923419       0.01382139
C        0.59519317      -0.77074557      -1.37727234       0.01623342      -0.00734442      -0.02923571
H        0.05558421      -0.32757018      -2.21585976      -0.00942425       0.00979207      -0.01158510
H        1.67322719      -0.69762690      -1.54801013       0.00835125       0.01906775      -0.00409937
H        0.33948972      -1.82905661      -1.28996260      -0.02422652      -0.00239281       0.01776089
N       -0.21206539       2.11285479      -1.23741197       0.00986066      -0.02051802       0.03261131
H        0.09297773       3.07453188      -1.32251667       0.01835674      -0.02590373      -0.01196759
H       -1.19213641       2.13920603      -0.97795452      -0.00335883      -0.02340497      -0.00206520
