16
Properties=species:S:1:pos:R:3:forces:R:3 Coordinates=T from=T ORCA-job=T run=T Energy:=T 56.2340832=T energy=-80358.00685636068 pbc="F F F"
C        0.30809153      -0.01684313      -0.11420955      -0.00288428      -0.01146882       0.00880970
H        1.60237245       1.52880741      -0.69720633       0.00631129      -0.01656182       0.02921837
Br      -1.52390204      -0.32088910       0.55929727       0.00562332      -0.02734406       0.00833194
H        2.93169303       0.71683498       1.19610258      -0.01092616       0.00206365       0.00676812
C        0.60487784       1.48173466      -0.25077551       0.00919367      -0.01087269       0.01915174
H        0.97948577      -0.30917232       0.70045107       0.02236303       0.00049954      -0.02081613
C        0.56385809      -0.87293844      -1.33668365       0.01338505       0.00773738       0.00183883
H       -0.05886251      -0.59616662      -2.18902113      -0.01658170       0.01509337       0.03643717
H        1.61373636      -0.73897749      -1.61426907       0.01068331      -0.01472275      -0.01732959
H        0.40419215      -1.92787345      -1.09990154      -0.00451063       0.01651301      -0.01311376
N        0.63215019       2.23451727       0.94869384       0.02191331       0.03562398       0.00964930
H        1.53122999       1.93807212       1.37227946       0.02583795      -0.02474726       0.01755995
H       -0.11939587       1.95495818       1.56915506      -0.01896799      -0.00331899      -0.04260287
N       -0.32231520       2.11117441      -1.27712951      -0.00111194      -0.00705209       0.00301932
O       -1.24739251       2.78320288      -0.89071041      -0.01515798       0.01994879      -0.03083834
O       -0.08634587       1.86847660      -2.44943994      -0.02052841       0.00681557      -0.04029922
