13
Properties=species:S:1:pos:R:3:forces:R:3 Coordinates=T from=T ORCA-job=T run=T Energy:=T 26.5058122=T energy=-78499.6534913166 pbc="F F F"
C        0.97947371      -0.07834443       0.05901127      -0.00309456       0.00427010       0.01374307
H        0.86952365       1.94110995      -0.71233243      -0.00733291      -0.01166722       0.02926445
F       -1.80001531       0.15691588      -0.83689075      -0.02026617       0.01990893       0.02481559
Br       2.89442990      -0.08423193       0.64667262       0.03038474      -0.01673209      -0.01270065
C        0.39044347       1.31682774       0.04955069      -0.00566349       0.00202059       0.01707500
H        0.47788350      -0.67137771       0.82141702       0.00604992      -0.00182119       0.01002007
H       -0.69335253       1.07526892      -0.28268685      -0.01144352      -0.01866514      -0.02607742
C        0.84002639      -0.73584047      -1.29432956       0.01830031      -0.00216112      -0.01130075
H       -0.24162474      -0.67322070      -1.49997937       0.00117901       0.02890669      -0.00101013
H        1.40444491      -0.18620172      -2.05410349       0.00709306       0.01922088      -0.02883825
H        1.18936316      -1.77088983      -1.28261175       0.01235009      -0.02104894       0.03054875
C        0.42067434       1.99792379       1.33115703      -0.00213305      -0.00678160      -0.02389235
N        0.41685481       2.54651396       2.34531768      -0.00381936       0.00707374       0.00219087
