12
Properties=species:S:1:pos:R:3:forces:R:3 Coordinates=T from=T ORCA-job=T run=T Energy:=T 1.2413616=T energy=-85797.19705569395 pbc="F F F"
C        1.09133283      -0.01854533      -0.03120061      -0.00874579      -0.00767209       0.01254091
H        1.34653441       1.96071387      -0.86271029      -0.00283102       0.01005170       0.00528949
Br      -2.49334044      -0.34049939       0.25725505      -0.00555407       0.00442498      -0.00499143
Cl       2.84628983      -0.23668935       0.47892920       0.00159823       0.00597802      -0.00980257
C        0.76634734       1.45665571      -0.08194744       0.00630329      -0.01069139      -0.00610461
H        0.50894668      -0.49781332       0.75337913      -0.00715218      -0.01115663       0.01842328
H        0.96866950       1.93841984       0.87790823      -0.00696832       0.00969460      -0.02056386
H       -0.30364549       1.54564229      -0.29280558       0.00571527       0.00668366       0.02141605
C        0.86172492      -0.72862384      -1.34559538       0.00695698       0.01060989       0.00693250
H       -0.20749013      -0.66042941      -1.56798751       0.00869284      -0.02279592       0.00721490
H        1.44271038      -0.26436147      -2.15007654      -0.00111480      -0.01039112      -0.00603675
H        1.13296038      -1.78495921      -1.27599264      -0.00645308       0.01207535      -0.02035256
