14
Properties=species:S:1:pos:R:3:forces:R:3 Coordinates=T from=T ORCA-job=T run=T Energy:=T 13.5025328=T energy=-21328.596491133594 pbc="F F F"
C        0.15748878      -0.17667598       0.00669487       0.00759830       0.04268318      -0.01355646
H        1.69343312       1.24170829      -0.03284458       0.37672546       0.09151930      -0.03841892
Cl      -1.64831740      -0.44937802       0.19481491      -0.06541378       0.01336645       0.01861695
H        3.12455258       0.83367465      -0.24987661      -0.03530329      -0.00107005       0.01082139
C        0.52818127       1.27482677       0.00090406      -0.45375546       0.01172473       0.03188015
H        0.59661381      -0.66761604       0.87440408      -0.01421813       0.00912826      -0.02210375
H        0.14813679       1.80752193      -0.86975674       0.02747987       0.02984046       0.02338254
C        0.62121554      -0.78961484      -1.29684351      -0.00015215      -0.01756537       0.01714143
H        0.11507125      -0.30193125      -2.13668876       0.03075425      -0.05087085      -0.01150080
H        1.70151194      -0.60816841      -1.37604881      -0.00284137      -0.01041072       0.02266182
H        0.41109649      -1.86088507      -1.33864901       0.01753013      -0.00325386       0.02608785
N        0.11412395       2.03389572       1.17834377       0.03519605      -0.08057200      -0.00861944
O       -0.17913247       3.20886143       1.01353761       0.03102643       0.02088819       0.03318089
O        0.14332764       1.48951646       2.27043644       0.03960759      -0.04770039      -0.09064003
