17
Properties=species:S:1:pos:R:3:forces:R:3 Coordinates=T from=T ORCA-job=T run=T Energy:=T 37.5991385=T energy=-30849.825994298328 pbc="F F F"
C        0.17209104      -0.08048203      -0.13740742      -0.02780352      -0.03078888       0.00658353
H        1.52995958       1.44844249      -0.49608165      -0.02890040       0.01571441      -0.01254045
Cl      -1.61152604      -0.41517256       0.10669210       0.04175544       0.00370650       0.00077020
Cl       3.29647252       0.28748820       1.34710139      -0.00468273      -0.00539144       0.00239188
C        0.47433427       1.41841634      -0.18414503      -0.01085506      -0.02933443       0.00534206
H        0.65155027      -0.49231023       0.74953663       0.01740519       0.02576566      -0.00045536
C        0.64496004      -0.83310617      -1.36358503       0.00166817       0.00185733      -0.00316911
H        0.12454224      -0.49618856      -2.26552641       0.02601922      -0.02254586      -0.02453091
H        1.71984196      -0.66526284      -1.47556519       0.00501805      -0.00742231       0.01329075
H        0.48119277      -1.90718223      -1.24917597      -0.03379702       0.02035629      -0.01340184
N        0.32290937       1.97724727       1.15702206       0.01632999       0.00069234       0.00213559
H        0.57438273       2.96028890       1.11615394      -0.01260811      -0.00529510      -0.01318146
H        1.06262134       1.54697660       1.71369879      -0.00214491       0.01211773       0.02044031
C       -0.37064149       2.19298177      -1.18605996       0.01264009       0.00352228       0.00087498
H       -0.22792002       1.82225348      -2.20594484      -0.03351858      -0.01885521       0.00033900
H       -1.43228332       2.13090735      -0.93286667       0.02296826       0.02277159       0.00571779
H       -0.08031021       3.24915096      -1.18485585       0.01169169       0.01097216       0.01176342
