16
Properties=species:S:1:pos:R:3:forces:R:3 Coordinates=T from=T ORCA-job=T run=T Energy:=T 49.6689050=T energy=-83061.21326147276 pbc="F F F"
C        0.89300313       0.01527336      -0.06881893      -0.02102108       0.03587871       0.00330571
H        1.63341748       2.03939833      -0.47215947      -0.00218901      -0.03665142       0.00453369
F       -1.84768327      -0.14828453      -0.51765189      -0.02358421       0.00524975      -0.00550464
Br       2.62569744      -0.34624679       0.82813640       0.01020949       0.01075135       0.01489151
C        0.71395756       1.52608812      -0.17052804      -0.01877307       0.01882259       0.01607798
H        0.11243248      -0.37687822       0.57750430       0.00658604       0.00239358       0.01446538
C        0.82423964      -0.68108614      -1.40866434       0.00952806       0.00799108      -0.00113284
H       -0.23808700      -0.63813292      -1.66899568       0.00764128       0.00655602      -0.01010512
H        1.45084584      -0.19468643      -2.16122806      -0.00529884      -0.00069576      -0.03614217
H        1.12763651      -1.72598455      -1.30751317       0.00475187      -0.00891123      -0.00292262
N        0.51542160       2.11604128       1.27436045       0.02009362       0.01058119       0.00438878
O        0.75032843       3.30998416       1.37212647       0.00056600      -0.01521534       0.00441383
O        0.07648132       1.43259404       2.16779553       0.00914020       0.01817395       0.01000449
N       -0.38321194       1.85750754      -0.98369208      -0.00649494      -0.00453721      -0.01186315
H       -0.60798597       2.84116709      -0.93035676       0.00568936      -0.02123223       0.00151506
H       -1.18537063       1.17276300      -0.80277449       0.00814045      -0.02060301      -0.02058145
