15
Properties=species:S:1:pos:R:3:forces:R:3 Coordinates=T from=T ORCA-job=T run=T Energy:=T 224.0680466=T energy=-14032.538600098354 pbc="F F F"
C        0.26120147      -0.12365559      -0.18017350      -0.01927402      -0.04957924      -0.00923360
H        1.58334843       1.39425463      -0.86113659       0.00197176       0.01646669      -0.01470148
F       -1.13639334      -0.22568471      -0.13146948      -0.05754963       0.03781110       0.07289183
H        2.09201916       1.22685254       1.31951871      -0.00328875      -0.01276104       0.05223660
C        0.67973052       1.34862830      -0.24312916       0.13913938      -0.02592302      -0.00219065
H        0.63088697      -0.52815403       0.77171396       0.04373762       0.08435060      -0.04946106
C        0.74135345      -0.98245471      -1.33049796       0.02867253      -0.03087183       0.01201501
H        0.33600126      -0.61113971      -2.27179105      -0.05663509      -0.00420626      -0.01528238
H        1.83267407      -0.93929153      -1.38840110       0.02586151      -0.03086669       0.02312166
H        0.44493450      -2.02436149      -1.17432877      -0.04150066      -0.00185510      -0.06120050
C        1.12178240       1.86998731       1.20853221      -0.06543262      -0.00247402      -0.02011729
N        0.63999722       2.64079749       2.01638388      -0.04985297       0.04876312      -0.12655725
N       -0.31931014       2.09586770      -1.08804252       0.03571705       0.04280449       0.07740765
O       -0.98580147       2.97963181      -0.61920341      -0.06135522      -0.05605501       0.20341224
O       -0.36253550       1.77753347      -2.27293739       0.08809629      -0.01447777      -0.14277050
