14
Properties=species:S:1:pos:R:3:forces:R:3 Coordinates=T from=T ORCA-job=T run=T Energy:=T 24.1071822=T energy=-24031.697163230278 pbc="F F F"
C        1.00928799      -0.05584853       0.05109449      -0.02874412      -0.00411933      -0.00520509
H        0.90985100       1.99051418      -0.68802795       0.01405070      -0.00047868       0.03311145
F       -1.80268286       0.40739465      -0.87398860       0.01245909      -0.00069896      -0.00356963
Cl       2.79428904      -0.05002928       0.52373644       0.01594715      -0.00151237      -0.00465632
C        0.42826034       1.32444607       0.02713551       0.01553387       0.00893137       0.01110294
H        0.52787759      -0.62616947       0.84100568       0.01977863      -0.00760766       0.03629362
H       -0.69817192       1.10567261      -0.29940382      -0.00477434       0.00953192      -0.02137109
C        0.83556652      -0.72576556      -1.29403552       0.00413398      -0.00179497      -0.00574244
H       -0.23901893      -0.65033051      -1.50940614       0.01314874       0.01458294       0.00580831
H        1.40475997      -0.19465194      -2.06383449      -0.01836013       0.00182621      -0.01830583
H        1.17413841      -1.76463518      -1.26835690      -0.01606711      -0.00662350       0.00945388
N        0.45170437       1.99741501       1.32856575       0.02072846      -0.02185783      -0.01372493
O        0.58301396       3.21051023       1.33523357      -0.02754074       0.02666943       0.01095842
O        0.29036766       1.33373619       2.33798218      -0.00770632      -0.01040646      -0.03132756
