14
Properties=species:S:1:pos:R:3:forces:R:3 Coordinates=T from=T ORCA-job=T run=T Energy:=T 125.5152269=T energy=-148339.84109952126 pbc="F F F"
C        0.93786711      -0.03879041      -0.05163961       0.01118006      -0.04173814      -0.00884257
H        1.65226037       1.94779357      -0.43804677       0.01711710       0.02003471      -0.01298905
Br      -2.31514883      -0.54826545       0.40377458      -0.01419056      -0.00736262      -0.00741359
Br       2.69312899      -0.31115881       0.80639748      -0.00348717       0.00740073      -0.01772790
C        0.70612423       1.48811586      -0.12928280       0.01606952      -0.02891944      -0.00995113
H        0.20030481      -0.48507710       0.61375518      -0.01731433       0.00161510      -0.00010493
C        0.88837730      -0.70783660      -1.40726337      -0.00786910       0.00162689      -0.01935840
H       -0.15285433      -0.69273937      -1.73964365      -0.01331773      -0.01259202       0.00260313
H        1.51699676      -0.20301643      -2.14788804       0.04227564      -0.00318788       0.02340552
H        1.20047371      -1.75042777      -1.32885722       0.00179467       0.02152837       0.02252950
C        0.37061217       2.08329891       1.17184411      -0.00477332       0.02492032       0.03075253
N        0.18302199       2.59855199       2.18046649       0.01692966      -0.00329871      -0.00084534
C       -0.25766724       1.90072782      -1.16289356      -0.01741661       0.00791051       0.01347082
N       -0.87289293       2.31293561      -2.04044664      -0.02020444       0.00442141      -0.02002496
