17
Properties=species:S:1:pos:R:3:forces:R:3 Coordinates=T from=T ORCA-job=T run=T Energy:=T 37.3053583=T energy=-88372.93853699359 pbc="F F F"
C        0.19340511      -0.09072800      -0.13896848       0.02124131       0.03533158       0.00535650
H        1.54930590       1.42836259      -0.52181150      -0.04925907       0.00449852      -0.00436367
Br      -1.72777157      -0.46742588       0.19979982       0.02300042       0.00623866       0.00363040
Cl       3.32575524       0.31395611       1.34767094      -0.00301021      -0.00621372      -0.00032265
C        0.49467684       1.40760479      -0.20033971      -0.02043245       0.01524015      -0.00150591
H        0.69731226      -0.49377267       0.73795648       0.00946813       0.00287366       0.01631515
C        0.63173065      -0.85555879      -1.37067734      -0.00039313      -0.00425022      -0.00145669
H        0.09209269      -0.53620865      -2.26660289       0.00269119       0.01329151      -0.02723974
H        1.70373587      -0.69050585      -1.51320252       0.01536123       0.00185438       0.01513720
H        0.47059241      -1.92631821      -1.23968808      -0.01887999      -0.03993050      -0.01185844
N        0.36008014       1.98218463       1.13517729      -0.00730353      -0.01489500      -0.00657653
H        0.58088567       2.97132600       1.07793751      -0.00202671      -0.00144008      -0.02529543
H        1.11983956       1.57770761       1.68361397       0.00227337      -0.00695665       0.03135895
C       -0.34879000       2.18146705      -1.20476878       0.01667731      -0.00948994       0.00284147
H       -0.22330005       1.78867624      -2.21886937      -0.03822920       0.00519467       0.00344358
H       -1.40900752       2.14024285      -0.93921905       0.03539390       0.02352284      -0.00030610
H       -0.04177840       3.23377115      -1.22314482       0.00943398      -0.02449057       0.00224796
