13
Properties=species:S:1:pos:R:3:forces:R:3 Coordinates=T from=T ORCA-job=T run=T Energy:=T 43.1134672=T energy=-20976.55068629016 pbc="F F F"
C        0.26854811      -0.09237034      -0.02032958      -0.00011153      -0.01432055      -0.00347221
H        1.68875275       1.34564299      -0.23451474       0.03815888       0.00628329       0.01624510
Cl      -1.47999265      -0.44136138       0.44404438      -0.03579487      -0.01353049      -0.01177416
F        2.99399373       0.47132132      -0.19198263       0.01717181       0.02760333      -0.00942210
C        0.54861303       1.39540867      -0.10160518      -0.00849697      -0.00904444      -0.01432620
H        0.85985463      -0.47403304       0.80709822       0.01593166       0.02442361       0.00778203
H        0.31764544       1.89734862       0.84201893      -0.00146801      -0.02032213      -0.00750472
C        0.65360363      -0.82558819      -1.28340950      -0.00277215      -0.01570288      -0.01420564
H        0.10039267      -0.45799621      -2.15247765      -0.01445659       0.03007984      -0.00654266
H        1.72543835      -0.60924029      -1.37540986       0.00099081       0.01633819       0.00730776
H        0.48882012      -1.90184319      -1.19015308      -0.01235987      -0.01705310       0.03209866
C       -0.12457747       2.08114229      -1.19116040       0.01720767      -0.03219119       0.01271367
N       -0.63585050       2.63525986      -2.06331494      -0.02086254       0.03224554      -0.01643053
