18
Properties=species:S:1:pos:R:3:forces:R:3 Coordinates=T from=T ORCA-job=T run=T Energy:=T 22.2344499=T energy=-20607.2540765674 pbc="F F F"
C        0.78461206       0.03456686      -0.00918553       0.03649964       0.01518928       0.01829910
H        1.72230830       1.85953992      -0.57510463       0.00780676      -0.00544403       0.00200003
Cl      -2.65708070      -0.73082455      -0.16852026      -0.00709546       0.01045181      -0.01361500
F        1.84237814      -0.26227487       0.89853958      -0.01938399       0.02771522      -0.03339541
C        0.74399517       1.55033636      -0.17382419       0.00482979      -0.00878000      -0.00237658
H       -0.14478187      -0.32272362       0.44713450       0.03973992      -0.00322573      -0.02572406
C        1.06509918      -0.73134021      -1.27942670      -0.00496746       0.00233002       0.02436511
H        0.21565976      -0.65258368      -1.96073067      -0.00042177      -0.01004799       0.01033747
H        1.97580691      -0.35573813      -1.76235116      -0.02974625      -0.01129145      -0.03767732
H        1.20199730      -1.78887779      -1.04492003       0.01138648      -0.01628883       0.00305359
C        0.54576841       2.20969394       1.18902968      -0.02594918      -0.00424425      -0.01155347
H       -0.41406377       1.89564684       1.61047955      -0.02326755      -0.00103307       0.03356128
H        1.33785583       1.91994504       1.88338448      -0.02444531       0.01703610       0.00853284
H        0.53584179       3.30210704       1.10513383       0.02469523       0.00614580      -0.00572234
C       -0.36057610       1.97058033      -1.14600302       0.00756648      -0.02181250       0.01454356
H       -0.17510609       1.60412327      -2.16020379       0.02021195       0.02236417      -0.00028437
H       -1.32323191       1.55734681      -0.82831271      -0.02104435       0.00701626      -0.00800200
H       -0.43447266       3.06386309      -1.19625291       0.00629728      -0.02394052       0.01910953
