17
Properties=species:S:1:pos:R:3:forces:R:3 Coordinates=T from=T ORCA-job=T run=T Energy:=T 58.9595018=T energy=-92431.90564613612 pbc="F F F"
C        0.90015713      -0.00007763      -0.00277104       0.01223384      -0.01283370      -0.00044882
H        1.85971934       1.90202013      -0.33239482       0.01614205       0.01540646       0.00749167
Br      -2.61638379      -0.66330806      -0.20736121      -0.00281074       0.01327962      -0.00323349
Cl       2.46687848      -0.51516899       0.77106164      -0.01837915       0.02613159      -0.01015164
C        0.84814411       1.53035789      -0.14427421       0.00700404      -0.01950650      -0.00407899
H        0.09791259      -0.33820490       0.65502430       0.01356423      -0.03045630      -0.00586553
C        0.78623997      -0.72316245      -1.33226982       0.00993844       0.00570677      -0.00134860
H       -0.22773602      -0.60568691      -1.71914268       0.00983838      -0.00463667       0.01520704
H        1.52546089      -0.35759224      -2.05345570       0.01403181      -0.01964599      -0.00294346
H        0.95304798      -1.78975976      -1.17476344      -0.01697336       0.00910532      -0.00178823
N        0.49616993       2.16513482       1.20117463      -0.01329656      -0.00263278       0.01195287
O       -0.40930625       2.96626333       1.24032668       0.02869350       0.02715051      -0.00407523
O        1.17970746       1.85542299       2.15312769      -0.02266018       0.00115653      -0.00740434
C       -0.11943693       2.01346438      -1.21028362      -0.00833058      -0.01723876       0.01194413
H        0.26111371       1.71783422      -2.19068926      -0.03379129       0.01064913       0.00388484
H       -1.10664019       1.56752256      -1.06398324      -0.02479827      -0.00128258      -0.00587142
H       -0.20833629       3.09975551      -1.18351202       0.03327402      -0.01619269       0.00520065
