13
Properties=species:S:1:pos:R:3:forces:R:3 Coordinates=T from=T ORCA-job=T run=T Energy:=T 37.2571110=T energy=-20976.542064037134 pbc="F F F"
C        0.04211214      -0.04144380      -0.09935666      -0.01539078      -0.00595930      -0.01669414
H        1.77749998       1.04671359       0.13566649       0.02901899      -0.01036792      -0.02016596
Cl      -1.80071515       0.02293028      -0.19697329       0.02879366       0.00224642      -0.01925405
F        2.96932506       0.08135605       0.04078642       0.01106996       0.01765300       0.00050557
C        0.65697864       1.33281141       0.06391646      -0.01385062      -0.01666054      -0.00069538
H        0.24231470      -0.62323661       0.79972336      -0.01820910      -0.00369302      -0.02814314
H        0.49452599       1.94406691      -0.82937987      -0.00998901       0.00362533      -0.00111917
C        0.60917162      -0.74267393      -1.31336903      -0.00512175       0.00023651       0.02126345
H        0.23475119      -1.76749320      -1.39467502       0.01280621       0.02110675       0.00746178
H        0.35481089      -0.20115625      -2.23261375       0.00707165      -0.00965559       0.04560006
H        1.69775617      -0.71668210      -1.13809696      -0.02612457      -0.00360798      -0.02126390
C        0.21298842       2.05637891       1.23965552      -0.01027809       0.00536223       0.03121352
N       -0.11110221       2.63611441       2.18224159       0.00331461       0.01310950      -0.00520455
