15
Properties=species:S:1:pos:R:3:forces:R:3 Coordinates=T from=T ORCA-job=T run=T Energy:=T 116.7212529=T energy=-26541.531459325714 pbc="F F F"
C        0.15269489      -0.14238304       0.01549373      -0.01918036       0.01939346      -0.02387269
H        1.62400060       1.28690377       0.12810693      -0.01213069       0.00112580      -0.00733950
Cl      -1.61905310      -0.50530089       0.22421544       0.01995401       0.00766305       0.00811313
F        2.88125528       0.47627615      -0.07190286       0.01235261      -0.01488728      -0.00470135
C        0.46554815       1.33883072       0.06936477       0.00449531       0.00272842      -0.00228590
H        0.21381245       1.77086768      -0.90310211      -0.02197796      -0.00987873       0.01438176
C        0.65870473      -0.75429608      -1.26884893      -0.00931325      -0.00335956       0.01074536
H        0.08632446      -0.34768058      -2.10700855       0.03282090       0.00885437       0.00994754
H        1.71644795      -0.46032621      -1.31006733      -0.01681986      -0.01213047       0.02650883
H        0.54956263      -1.83682084      -1.24243266       0.00368147       0.00137051      -0.01427626
N        0.80967786      -0.85479764       1.21838209      -0.00968099       0.01329287      -0.02483431
O        0.91841062      -0.22276394       2.23785839       0.00665539       0.00049666      -0.00962476
O        1.09147704      -2.02251448       1.08261564       0.00112029       0.01058447       0.00645767
C       -0.16851088       2.13231029       1.10437610      -0.00260251       0.00689708       0.03306985
N       -0.65381310       2.83705275       1.87608836       0.00547079      -0.02736110      -0.02785778
