18
Properties=species:S:1:pos:R:3:forces:R:3 Coordinates=T from=T ORCA-job=T run=T Energy:=T 204.4228535=T energy=-27612.84882217776 pbc="F F F"
C        0.04513150      -0.15105829       0.08483820      -0.00816337       0.01395485      -0.05533001
H        1.47499832       1.41278519       0.27569580       0.03173695       0.01317993      -0.00932448
F       -1.31687941      -0.31503387       0.27601294       0.00308284      -0.04376808       0.02462915
Cl       3.43301663       1.04984496      -1.20406395       0.05947627      -0.05116923      -0.02342467
C        0.39469555       1.33482771       0.09948422       0.02206339       0.02718173      -0.01869247
C        0.46600972      -0.90053053      -1.14566422       0.01394953      -0.00207930      -0.02226129
H       -0.12517750      -0.54027387      -1.98882386       0.03159063       0.01356699      -0.00345108
H        1.52733768      -0.72673786      -1.34963393      -0.00185705       0.03400469       0.01448657
H        0.26490193      -1.95767401      -0.99190672       0.01518022      -0.06346499      -0.02594253
N        0.65220482      -0.85258051       1.32934499       0.05604775       0.02213452      -0.02758462
O        1.03951928      -0.15934107       2.23755028      -0.00564148      -0.01597454       0.02126264
O        0.65778314      -2.06311724       1.31937854      -0.07490942       0.02799548       0.05548264
C       -0.33065409       2.04608154       1.15588392      -0.01723013       0.00978951       0.05188163
N       -0.91535983       2.67201255       1.92290452      -0.02219120      -0.00151985       0.02618493
C        0.11820602       2.00723009      -1.25120270      -0.00618418      -0.00959879      -0.01830325
H        0.86434511       1.67262994      -1.97087674       0.02797797      -0.02208900      -0.00413641
H       -0.89070955       1.78922946      -1.61175581      -0.05766815       0.06276354       0.02633765
H        0.23480903       3.08736033      -1.14454140      -0.04532349      -0.01982479      -0.01299192
