16
Properties=species:S:1:pos:R:3:forces:R:3 Coordinates=T from=T ORCA-job=T run=T Energy:=T 57.3010743=T energy=-25537.513732298667 pbc="F F F"
C        1.15234092       0.05865523      -0.06201285      -0.01499677       0.01892202      -0.03114793
H        1.76573330       2.02552213      -0.54168455      -0.00218625      -0.01203883       0.00855841
F       -1.55919928      -0.17484580      -0.12117402       0.00537458      -0.00222202       0.00335508
Cl       2.92519011      -0.10009709       0.41054330       0.01129307      -0.00725124       0.01351291
C        0.85613011       1.55957123      -0.14373996       0.00191412       0.01463296       0.00957133
H        0.73998730       1.89932684       0.89359356      -0.00757760       0.01281527      -0.02735578
C        0.89082179      -0.72847352      -1.31730141       0.00526655       0.00738352      -0.00398431
H       -0.19982954      -0.72928853      -1.41550195       0.01526494      -0.02122751       0.01585181
H        1.36937010      -0.22766067      -2.16141737      -0.02249715       0.02219949       0.00145781
H        1.26884983      -1.74544683      -1.21821692      -0.01244786       0.00573514       0.00713203
N        0.46242187      -0.62211832       1.14646875       0.01010623       0.02611357       0.01899620
O        0.20804367       0.06271891       2.10966143      -0.00691612      -0.02788312      -0.03695303
O        0.39101027      -1.82635636       1.11226474      -0.02810666      -0.01176235       0.00519978
N       -0.26544326       1.86022809      -1.02274855      -0.00637293      -0.00147426       0.03872454
H       -0.57258981       2.80316493      -0.80837653      -0.00442052      -0.02702101      -0.00593478
H       -1.02137996       1.19469340      -0.73349751       0.02888699      -0.00302580      -0.00327581
