16
Properties=species:S:1:pos:R:3:forces:R:3 Coordinates=T from=T ORCA-job=T run=T Energy:=T 183.7066316=T energy=-24992.42585013779 pbc="F F F"
C        1.01228019      -0.02552728       0.00087686      -0.03395534      -0.03019548      -0.06797026
H        1.69445338       1.94410150      -0.42898797      -0.06503331      -0.00734380      -0.01167427
F       -1.71149922      -0.16919824      -0.37891538       0.02203058      -0.00164621       0.02842403
Cl       2.78800892      -0.19741143       0.49422713      -0.05079647       0.05327552       0.06337006
C        0.74521441       1.51285578      -0.08491524       0.00698849      -0.06618484      -0.02045788
C        0.82925314      -0.72129476      -1.33823019       0.00928305      -0.02314989      -0.05555368
H       -0.25387525      -0.77596209      -1.48282547      -0.01190738      -0.05811365       0.06157197
H        1.28539651      -0.15038013      -2.14683369       0.10097136       0.09506068       0.04950649
H        1.29277319      -1.70886738      -1.28962886      -0.12179680      -0.06555690      -0.02057492
C        0.26926149      -0.71694848       1.07462259       0.09216866       0.18833270       0.07538168
N       -0.07022114      -1.26106082       2.02984095      -0.02774031      -0.07182333      -0.08273777
C        0.52471267       2.10000987       1.26646814      -0.01119811      -0.02800291       0.02941367
N        0.34273288       2.64877630       2.26225318       0.03447578      -0.01388290      -0.09402250
N       -0.29448078       1.81753677      -1.03933572       0.02683844       0.02058044       0.02232814
H       -0.55720380       2.78985333      -0.94813121      -0.04943703       0.02635416       0.03052930
H       -1.10407696       1.17030282      -0.82772418       0.05929857      -0.02156100       0.01298633
