15
Properties=species:S:1:pos:R:3:forces:R:3 Coordinates=T from=T ORCA-job=T run=T Energy:=T 29.2803135=T energy=-23838.326695866705 pbc="F F F"
C        0.16982275      -0.08065480       0.00982349      -0.31951703       0.33329092       0.31619549
H        1.86091394       0.99214606      -0.44098093       2.19264519       0.29770398       0.11940059
Cl      -1.76319296      -0.25236382       0.13046855      -0.16151588      -0.25995923       0.35150670
H        2.74469493       0.74438000      -0.51823206       0.13697147       0.01591039      -0.32888107
C        0.56463945       1.34602675      -0.03267362      -1.52748080      -0.39967376       0.54151246
H        0.56820766       1.92666098       0.91522193      -0.36815042      -0.60407539      -0.75355340
C        0.54446061      -0.91864206      -1.18441007       0.01188746      -0.02666171      -0.16188943
H        0.03564476      -0.51867488      -2.03998235      -0.07576545       0.16183989      -0.51940278
H        1.61150011      -0.79426400      -1.30813888       0.45977851       0.02929928      -0.27255473
H        0.32553285      -1.97614705      -1.11101749      -0.24665164      -0.23482125       0.46301594
C        0.71852867      -0.67181103       1.23374871      -0.16602650       0.20500127       0.12454189
N        1.20616068      -1.08851501       2.18789603      -0.00923953      -0.12000673       0.00594245
N       -0.02657342       2.06111199      -1.09606638       0.04823004       0.45717543       0.19159068
O       -0.70540770       3.05049236      -0.81932487       0.21175911       0.26305351      -0.10370468
O        0.19668889       1.71404316      -2.25944810      -0.19877686      -0.12876509       0.02132949
