19
Properties=species:S:1:pos:R:3:forces:R:3 Coordinates=T from=T ORCA-job=T run=T Energy:=T 53.9581757=T energy=-80638.57568396295 pbc="F F F"
C        0.90628360      -0.03410565      -0.04304809       0.00861907      -0.01567586      -0.03597828
H        1.64165099       1.89398971      -0.52423383       0.00825730       0.01424271      -0.00430665
F       -1.61957240      -0.45595775      -0.43205743      -0.01524717      -0.00232884       0.00366959
Br       2.82321196      -0.26062306       0.65591558      -0.03151185       0.00799857       0.00775956
C        0.69472302       1.50543060      -0.13117604      -0.01211238      -0.02711623      -0.02220626
C        0.87643834      -0.75466712      -1.38179953      -0.00166690       0.01363044       0.00241053
H       -0.18074254      -0.76666904      -1.66167560       0.00295871       0.00849080       0.01740103
H        1.50701266      -0.23441709      -2.10965313      -0.00056049       0.00671492       0.01439578
H        1.23720771      -1.77962637      -1.27270145      -0.01665547       0.00960000       0.01205256
C        0.08949027      -0.69888665       0.99427253       0.03044788       0.01594379       0.00893969
N       -0.22083374      -1.19067357       1.99239108       0.01259854      -0.01948691       0.01696882
C        0.45454363       2.12415875       1.24456504       0.01125174       0.00294542      -0.01665219
H       -0.50186254       1.78366439       1.65054896      -0.00554644      -0.00216792      -0.02459325
H        1.23980320       1.86157292       1.95796221       0.00319658      -0.04554504       0.00832914
H        0.42655619       3.21537415       1.16218769      -0.01655305       0.02207135      -0.00589238
C       -0.42279389       1.90884088      -1.09762523      -0.01654582       0.00624738      -0.00257942
H       -0.16346671       1.66607205      -2.13271347       0.03241575       0.00253765      -0.01786678
H       -1.32740353       1.34403340      -0.85285104      -0.00781961      -0.02659139       0.02455321
H       -0.57842641       2.99275243      -1.03867364       0.00635596       0.02233505       0.00820929
