15
Properties=species:S:1:pos:R:3:forces:R:3 Coordinates=T from=T ORCA-job=T run=T Energy:=T 31.2759044=T energy=-93872.09421341852 pbc="F F F"
C        1.10038521      -0.03400761       0.13599818       0.00539438       0.00717919      -0.00046104
H        0.66320917       1.87280992      -0.76000323      -0.00620275      -0.00003710      -0.01024651
Br      -2.63897965       0.28634373      -1.35401438      -0.00310716       0.00880628       0.00106889
Cl       2.88750089       0.29488214       0.29327597       0.03159130       0.01723529      -0.00519505
C        0.35347881       1.29066529       0.10463136       0.00011559      -0.00142959      -0.00897460
H       -0.73313579       1.11085870       0.01686278       0.01447108      -0.01171197       0.01297636
C        0.85233166      -0.77487455      -1.17634401       0.00070144      -0.00542212       0.00962529
H       -0.22683452      -0.89382022      -1.32264521       0.00024794      -0.01193723       0.01142890
H        1.24878414      -0.18818447      -2.00781892      -0.00925686       0.00428159       0.01782632
H        1.34767032      -1.74638422      -1.15510178       0.00576271      -0.00805138      -0.00639401
C        0.73967245      -0.90667225       1.26314751      -0.02877753      -0.01486571      -0.00641633
N        0.48844025      -1.67563718       2.07864710      -0.00515347       0.00686984      -0.01453237
N        0.59179057       2.16162861       1.29268774      -0.02602092       0.00637774      -0.00730503
O        0.62491442       3.35606883       1.08826459       0.00474607      -0.01376080      -0.00041168
O        0.69791205       1.63801410       2.37940876       0.01160914      -0.00397429      -0.00563867
