16
Properties=species:S:1:pos:R:3:forces:R:3 Coordinates=T from=T ORCA-job=T run=T Energy:=T 189.2540985=T energy=-92323.01786148232 pbc="F F F"
C        0.13801602      -0.07784065       0.00212596       0.03901130       0.07328844       0.02564631
H        1.59311614       1.43998685      -0.28727073      -0.02175969      -0.01251070      -0.01436575
Br      -1.83472496      -0.27919901       0.19189832       0.00575568      -0.01999444       0.01708981
Cl       3.71829425       0.86872097      -0.37095948       0.01432839      -0.04925082      -0.00140188
C        0.50224612       1.43099451      -0.08479101      -0.00255260       0.03884918       0.01025604
C        0.61358855      -0.86789824      -1.20701222      -0.03721590       0.11375368       0.02993560
H        0.09517527      -0.52404405      -2.10133012      -0.01901706       0.06678781      -0.06731246
H        1.68876948      -0.69554588      -1.31813696       0.04959865      -0.04284019       0.02385481
H        0.40919159      -1.92603300      -1.06640693       0.02852708      -0.15667331      -0.02520034
C        0.68561721      -0.63284762       1.24509475      -0.01024437      -0.04776159       0.06365361
N        1.06035467      -1.08878341       2.23196135      -0.00044662       0.04049960      -0.05401404
N        0.27228159       2.21755022       1.10428170      -0.02678051      -0.07151201       0.00062887
H        0.99121972       2.00148602       1.78438659      -0.01925951       0.03968527      -0.01735657
H       -0.63818917       2.02011158       1.50359685       0.01792918       0.02774069       0.03782953
C       -0.17052337       2.04700550      -1.23807149      -0.04515080       0.02081804      -0.00885175
N       -0.70453096       2.53405165      -2.13262396       0.01831110      -0.01898396      -0.00833207
