15
Properties=species:S:1:pos:R:3:forces:R:3 Coordinates=T from=T ORCA-job=T run=T Energy:=T 25.3089846=T energy=-80007.04870144013 pbc="F F F"
C        0.05307434      -0.13913873       0.02568093      -0.07578154       0.10853475       0.03226312
H        1.58626313       1.36370247      -0.05932690       0.05385349      -0.16797471       0.05938437
F       -1.36244420      -0.17794840      -0.02942036       0.04638786       0.10970356      -0.04251597
Br       4.01576194       1.05589476      -1.02947107      -0.09470101       0.01202380      -0.00539991
C        0.49488477       1.32430873       0.03493783      -0.01353712       0.15711266       0.01793783
H        0.21891760       1.76886275       0.99898948      -0.02861042      -0.02222712       0.12940594
C        0.59902904      -0.91531996      -1.14705235      -0.02189015       0.07066779      -0.03772592
H        0.34649348      -0.34864698      -2.04464136       0.03219786      -0.05122410      -0.03038124
H        1.69036815      -0.97412773      -1.07107219      -0.06604168      -0.04464097      -0.06081425
H        0.13530263      -1.90591388      -1.18419897       0.12891888       0.01862187      -0.00435229
C        0.36977465      -0.78431699       1.31619886      -0.04651083      -0.13964500       0.07702703
N        0.51831908      -1.31100927       2.32693924       0.10152403       0.03672271       0.00287469
N       -0.08621266       2.02904532      -1.09467571      -0.12134697       0.14563164      -0.08302072
H        0.52344866       2.78899892      -1.37536572      -0.02969109      -0.18932592       0.01720405
H       -0.98943810       2.41511933      -0.84560207       0.11409637      -0.05574381      -0.07376222
