15
Properties=species:S:1:pos:R:3:forces:R:3 Coordinates=T from=T ORCA-job=T run=T Energy:=T 86.6272677=T energy=-89813.15197976613 pbc="F F F"
C        1.28727034      -0.04429634      -0.05197900       0.03202688      -0.00047776      -0.02593117
H        1.20957694       1.94058667       0.78426677       0.02496218      -0.00910324       0.01706039
Cl      -2.70336730       0.79700864      -0.95381576       0.01855759      -0.00921900       0.00118503
Br       3.15479604       0.24018002      -0.65871865       0.03770699       0.00765770       0.00171478
C        0.59040528       1.31750700       0.13305712      -0.00400140       0.00570707       0.00054177
H       -0.35195935       1.09968701       0.65463636      -0.03219906       0.00960637       0.00171928
C        0.56306723      -0.90159331      -1.07854896      -0.01351087      -0.01027752       0.00079349
H       -0.49388806      -0.96810393      -0.80284168      -0.02901653      -0.02188165      -0.01603633
H        0.61634575      -0.39105579      -2.03985791      -0.03105565      -0.01942805      -0.00583590
H        1.00366356      -1.89694204      -1.15978952       0.02378699       0.00588947       0.01728248
C        1.39725807      -0.72425268       1.24215597      -0.03806181      -0.00151923       0.01862601
N        1.45304396      -1.24507552       2.26646735       0.01905686      -0.00034034      -0.00679710
N        0.35851800       1.95558715      -1.14471145      -0.01184534       0.02437548       0.02655664
H        0.42635258       2.95758740      -1.03865144       0.01384251       0.02966532      -0.00939466
H       -0.60781973       1.75191694      -1.40971825      -0.00342191      -0.00692605      -0.01156740
