18
Properties=species:S:1:pos:R:3:forces:R:3 Coordinates=T from=T ORCA-job=T run=T Energy:=T 257.7296046=T energy=-23554.04589288623 pbc="F F F"
C        0.00288561      -0.11694631      -0.08978835      -0.01190433      -0.02243360       0.02057476
H        1.57291964       1.28629973      -0.43033834       0.03861904      -0.00918716       0.03084089
F       -1.40757103      -0.06930825      -0.20897210       0.00718136       0.03072704      -0.04612476
Cl       3.60903086       0.67237142       1.11945446      -0.02923520       0.00706586       0.00010871
C        0.53829920       1.33656880      -0.06216319       0.01488102      -0.03042044      -0.01187861
C        0.53969933      -0.83095137      -1.31590168      -0.00927809      -0.06904882      -0.04126213
H        0.02572416      -1.79014118      -1.43549489       0.03842003       0.03129982       0.01038890
H        0.37583995      -0.23987452      -2.22523221       0.03860610      -0.04562501       0.06883281
H        1.61341382      -1.01295484      -1.18653555      -0.10928244       0.05493481      -0.07161053
C        0.30199145      -0.86790422       1.18717774       0.04514119       0.00258408       0.07012681
H        1.37769409      -0.84781931       1.39498542      -0.06282587      -0.01429482       0.00544410
H       -0.22860356      -0.38548455       2.01073715       0.06349658      -0.02774769      -0.00200959
H       -0.04156037      -1.90687544       1.09476519       0.03709848       0.13313230      -0.01163306
N        0.50267574       1.94923299       1.26495544      -0.09790622      -0.03889623       0.04231737
H        0.53011428       2.95682957       1.16167903       0.01740895      -0.01151340       0.00301734
H        1.38965423       1.69197100       1.70199861       0.00527196      -0.01897315      -0.04302906
C       -0.22203832       2.14844767      -1.02476786      -0.04351858       0.10699943      -0.09413857
N       -0.77667033       2.81227279      -1.78487593       0.05804314      -0.07493594       0.09556813
