18
Properties=species:S:1:pos:R:3:forces:R:3 Coordinates=T from=T ORCA-job=T run=T Energy:=T 191.0071061=T energy=-33359.85245198354 pbc="F F F"
C        0.03004791      -0.12160818       0.01564325      -0.03362077      -0.00013153      -0.02664596
H        1.58443492       1.28949403      -0.05829998      -0.02019662      -0.03013966       0.06979439
Cl      -1.81981150      -0.13496464       0.04941985      -0.03638146       0.03525851      -0.01959407
Cl       3.71460873       0.30433288      -0.11037109       0.02344124       0.01765359      -0.01322752
C        0.48262145       1.34864711      -0.00164342      -0.02137558       0.01669456      -0.05632807
C        0.51233902      -0.83451486      -1.25454591      -0.00371822       0.00612724       0.00390332
H       -0.31460278      -1.31915075      -1.77578389       0.02205393      -0.03486705       0.03130641
H        0.98069822      -0.12377856      -1.93396835      -0.03518433      -0.02061213      -0.02522045
H        1.26255550      -1.58057044      -0.98889696       0.03284445       0.03374430      -0.03381404
C        0.50950269      -0.82249994       1.27267042       0.00609980      -0.01837586       0.00494453
H        1.60289538      -0.74963742       1.28661269       0.00001088      -0.05274648       0.04218915
H        0.09844735      -0.37261973       2.17891680       0.00759723       0.04225883      -0.00721797
H        0.21497258      -1.87406252       1.24572712       0.02295487      -0.02808172       0.00309064
C        0.11689147       2.05009931       1.24595175      -0.05687511       0.01688919       0.14191710
N       -0.21529422       2.64224986       2.17616270       0.06503232       0.00234961      -0.03997770
N       -0.00044269       2.06230758      -1.17168652      -0.02849798       0.09137564      -0.06029457
H        0.55841077       2.89299692      -1.31645303      -0.01152839      -0.02829041      -0.00766825
H       -0.96651126       2.34490975      -1.04844688       0.06180894      -0.04804395      -0.00866858
