20
Properties=species:S:1:pos:R:3:forces:R:3 Coordinates=T from=T ORCA-job=T run=T Energy:=T 51.2090515=T energy=-9605.007582984876 pbc="F F F"
C        1.15925102       0.07435527       0.12662050       0.00355870       0.01657770       0.03314849
H        1.59287810       2.02652963      -0.59741162       0.01809844      -0.00918453      -0.01177494
F       -1.88441410      -0.57707131      -0.78121523       0.00105313       0.00259408      -0.04356884
H        2.19664387       0.10385269       0.50160500       0.01737273      -0.00257652       0.01705279
C        0.74504727       1.55366610      -0.06336530      -0.00525967       0.00370877       0.00184019
C        1.12835288      -0.66664218      -1.21462182      -0.01579819       0.01591955       0.03291890
H        0.07398567      -0.83196924      -1.46828871      -0.00333903      -0.00422025      -0.02530843
H        1.62092496      -0.09263950      -2.00974975      -0.02451819      -0.01456573       0.00948874
H        1.62959728      -1.64086891      -1.13118097      -0.00504440       0.01773693       0.00495233
C        0.28347798      -0.69084660       1.12658002       0.01414057       0.01461391      -0.01269182
H        0.65443416      -1.72061257       1.23142188      -0.00381038       0.04166121       0.00270625
H        0.29071993      -0.23745583       2.12692650       0.00645216      -0.02490927      -0.03696983
H       -0.73719173      -0.73614550       0.71061125       0.03421099       0.00296278       0.02258884
C        0.62064134       2.29325422       1.27242152       0.01299561      -0.00547508       0.02441673
H       -0.22158837       1.90239370       1.85019601      -0.01396633       0.00810532       0.01114459
H        1.52827548       2.21287420       1.88421844       0.03333298      -0.02023435       0.00989942
H        0.43327015       3.36085943       1.09721707       0.02287131      -0.01039544      -0.01141919
N       -0.45516844       1.69867598      -0.87748816      -0.02672372      -0.02666874       0.00937219
H       -1.00813995       2.47049768      -0.52338810      -0.02082830      -0.01740172      -0.02512094
H       -1.05847581       0.84274798      -0.84560201      -0.03439477      -0.00326946      -0.01996527
