17
Properties=species:S:1:pos:R:3:forces:R:3 Coordinates=T from=T ORCA-job=T run=T Energy:=T 42.7219547=T energy=-78565.66330312478 pbc="F F F"
C       -0.02692695      -0.02903354      -0.05723627       0.01559886      -0.00434734       0.00881336
H       -0.32255786       2.02939162      -0.65281588      -0.00596400      -0.00637702      -0.00327824
Br      -1.84111091      -0.35425079      -0.93212088      -0.00504105       0.02719359      -0.00271404
F        2.80880862      -0.11682337       1.34601378       0.00522332      -0.00676492       0.00572917
C        0.02093808       1.48874611       0.23687688      -0.01948326      -0.04093669      -0.01335540
H       -0.72103752       1.69253662       1.02264219       0.02315876      -0.00760028      -0.00285554
C        1.05451279      -0.47079408      -1.02358315      -0.00287595       0.00608391       0.00805176
H        0.90419406      -1.51010614      -1.32999303      -0.00602723       0.00929596      -0.01474323
H        1.08276905       0.16011055      -1.91844606       0.01344169      -0.00679821      -0.01294584
H        1.99344087      -0.40107570      -0.45058651      -0.01713606       0.02089635       0.02080711
C        0.02358546      -0.85900200       1.21088487      -0.00105551       0.00896087      -0.01352765
H        1.05092422      -0.73335797       1.60066334      -0.00901954       0.03050967      -0.02699191
H       -0.72283578      -0.52201724       1.93739109      -0.00175527      -0.03066396       0.00031985
H       -0.14454044      -1.91861228       0.99309376      -0.01225454       0.01213267       0.01546384
N        1.32561233       1.99347366       0.63360034      -0.02861785       0.00608715       0.02768959
H        1.85354175       2.20123585      -0.20606057       0.00221745      -0.03027513      -0.03461041
H        1.89136153       1.24367958       1.09130535       0.03704917       0.00496578       0.01667976
