17
Properties=species:S:1:pos:R:3:forces:R:3 Coordinates=T from=T ORCA-job=T run=T Energy:=T 35.4832585=T energy=-21042.181089752365 pbc="F F F"
C        0.08267215      -0.05705226      -0.01597944      -0.00436074      -0.02378209       0.00211934
H        1.69901405       1.19661511      -0.06346950      -0.01667835       0.03333721       0.00942216
Cl      -1.80213746       0.01010512       0.01332399      -0.02976500       0.00462279      -0.00048004
F        3.07699616      -0.11988645       0.03300523       0.00264348       0.00717211      -0.00282519
C        0.60529471       1.37049088      -0.04661833      -0.00930895      -0.03050491       0.01327186
H        0.32584904       1.86480870       0.90050996       0.02212383      -0.01156736      -0.01074764
C        0.52782582      -0.82136489      -1.24417311      -0.00342865       0.00253876       0.00293525
H        0.14609222      -1.84804024      -1.23344621       0.00516172       0.01851577      -0.00456941
H        0.21382620      -0.31335468      -2.15766026       0.00247652      -0.01397607       0.00167648
H        1.62699562      -0.80790208      -1.15223398      -0.01237035      -0.02224830      -0.00033497
C        0.55482824      -0.74634562       1.24745787      -0.00090706       0.00154272       0.00163877
H        1.65606958      -0.72210264       1.14787812      -0.00159615       0.00683545      -0.00195895
H        0.23123177      -0.21325638       2.14786294      -0.00992350       0.01972286      -0.01390511
H        0.18651747      -1.77617244       1.29940620       0.00712520       0.00697528      -0.02047656
N        0.17096047       2.11472919      -1.22930304       0.00371054      -0.00733442       0.04859271
H        0.66668358       2.99699358      -1.25377028       0.01351886      -0.01537868      -0.03295904
H       -0.81786379       2.32707599      -1.14567689       0.01613597       0.01509252       0.01545974
