16
Properties=species:S:1:pos:R:3:forces:R:3 Coordinates=T from=T ORCA-job=T run=T Energy:=T 62.5027954=T energy=-79569.69486663786 pbc="F F F"
C        0.07346575      -0.05308812      -0.01067971      -0.01532728      -0.03546625      -0.00252029
H        1.78889884       1.09430924       0.09145896       0.02415238       0.01693374      -0.00762283
Br      -1.93908922       0.06475033      -0.15060901       0.01217938       0.01767666       0.00795328
F        3.03887332       0.03934333       0.09155586       0.00749057      -0.02414388       0.01061281
C        0.67852602       1.34628668       0.05833216      -0.00643924      -0.02265487       0.00125826
H        0.45201517       1.91963145      -0.84503349       0.00708258      -0.00074163       0.00027257
C        0.59431133      -0.74272783      -1.25949509      -0.00240804      -0.00112189      -0.00681525
H        0.21069666      -1.76457565      -1.33408951       0.01165773       0.01371100       0.00222997
H        0.31428690      -0.19586941      -2.16526324       0.00086338      -0.00528361       0.00176079
H        1.68804758      -0.73524680      -1.13169833      -0.01641868       0.02120286       0.01214468
C        0.43934410      -0.84317392       1.23209431      -0.00127263      -0.00372867       0.00535634
H        1.53900707      -0.82715889       1.23421060      -0.00836824       0.00335717      -0.00904133
H        0.04983194      -0.37245895       2.13859764       0.01400566      -0.01142415       0.00757660
H        0.06684589      -1.87030772       1.17803260      -0.00276686       0.01760166      -0.01633765
C        0.29912016       2.12750452       1.22461130      -0.01304844       0.00546107      -0.01199638
N        0.02770040       2.75923637       2.14918142      -0.01475476       0.01898849       0.01316721
