18
Properties=species:S:1:pos:R:3:forces:R:3 Coordinates=T from=T ORCA-job=T run=T Energy:=T 295.3265011=T energy=-11043.289385483668 pbc="F F F"
C       -0.03286879      -0.13651555       0.03180887       0.02143951       0.12540704      -0.14057426
H        1.62670433       1.23806042       0.11921953       0.03689029      -0.13759672      -0.00798721
F       -1.46353143      -0.11946685      -0.01788505       0.03300564       0.11573020       0.04128732
H        3.21159076       1.29022628      -0.36994916      -0.13378626       0.02619194      -0.06350319
C        0.48283800       1.30168929       0.06532478       0.13086718      -0.03761008       0.14786817
C        0.44198778      -0.83232059      -1.22780668       0.00612474       0.07323723       0.02984420
H        0.24775385      -1.90095465      -1.12784023      -0.02418277      -0.18328230      -0.14863702
H       -0.07068487      -0.43710308      -2.10632513      -0.00551787       0.03278278       0.10526838
H        1.51515993      -0.65880956      -1.35657491       0.03382038      -0.01171627       0.04938713
C        0.33662011      -0.94312118       1.27485857      -0.06245571       0.24464491      -0.28153101
H        1.34589818      -1.34739137       1.15678555      -0.01421748       0.03081032       0.12240059
H        0.28564389      -0.35510974       2.19794075      -0.03083739      -0.05887615      -0.11469625
H       -0.39233195      -1.75427082       1.32735992       0.13111280      -0.16900852       0.15298892
C        0.04061169       1.98402867       1.28806183      -0.03490275       0.05472537      -0.07040615
N       -0.27361230       2.51498226       2.26287293      -0.03714967       0.04674229      -0.03395526
N        0.26058566       2.04651257      -1.16023703      -0.07853957      -0.24019964       0.09838880
H        1.10116786       2.58113510      -1.36218579      -0.05363762       0.00035392       0.01609915
H       -0.56345781       2.62838497      -1.13588734       0.08413787       0.08972961       0.06253316
