19
Properties=species:S:1:pos:R:3:forces:R:3 Coordinates=T from=T ORCA-job=T run=T Energy:=T 82.4332545=T energy=-23906.133941598026 pbc="F F F"
C        0.24478122      -0.05739286      -0.02678916       0.04139139      -0.02160681       0.00864068
H        3.44776821       0.99417655       0.01500337      -0.13049224      -0.07078343      -0.01723681
Cl      -2.78400509      -0.78921919      -0.16900534       0.01056043      -0.06969579       0.02206117
H        3.95812640       1.52585825       0.08376140       0.07719498       0.06722713       0.02345278
C        0.21745680       1.28316916       0.08496948       0.02332823      -0.09399058      -0.19615893
C        0.42924182      -0.85926825      -1.28101656       0.05670487       0.01076650      -0.01472711
H        0.05817686      -1.87675052      -1.13275867      -0.08481450       0.18621809      -0.05261533
H       -0.05037319      -0.39639785      -2.13461835      -0.06725737      -0.18481097      -0.00690257
H        1.51187903      -0.92097448      -1.47958854      -0.04709736      -0.00322177      -0.03660072
C        0.27973307      -0.84885502       1.24372838       0.02719293      -0.05656957       0.06858845
H        1.31302918      -1.00496718       1.57710848       0.11060955       0.02790250       0.02002592
H       -0.25925706      -0.31247099       2.01895770      -0.00207346      -0.09809833       0.11974163
H       -0.17502764      -1.82413391       1.07563738      -0.11393714       0.03444300       0.05607915
N        0.31063668       1.95376698       1.32157835       0.14720556      -0.14368788       0.01267897
H       -0.31673333       2.74341040       1.34620837      -0.04779216       0.09518247      -0.01380700
H        1.25394624       2.30645295       1.45408860      -0.16953081       0.06636292       0.01285242
N        0.06378412       2.17021964      -1.07963088       0.02188332      -0.00113544      -0.07879758
O        0.16782375       3.36928904      -0.85781055      -0.01189181       0.21017461       0.04971738
O       -0.17431754       1.72753985      -2.18529714       0.14632613       0.03683894       0.02400909
