17
Properties=species:S:1:pos:R:3:forces:R:3 Coordinates=T from=T ORCA-job=T run=T Energy:=T 31.2084239=T energy=-34909.017197302295 pbc="F F F"
C        0.05185308      -0.04739524       0.02437130      -0.05251266       0.03230983      -0.01723291
H        1.75586210       1.22680891       0.26620459       0.00963351      -0.03251996       0.00432928
Cl      -1.77816974       0.15657392      -0.09216321       0.00114136      -0.00931566       0.00577648
Cl       3.82613085       0.01276401       0.00697136      -0.01568595      -0.00708395       0.00228644
C        0.67351509       1.34424607       0.10546320       0.01363798       0.02220209       0.01908812
H        0.48464241       1.91007660      -0.80431865      -0.00635378      -0.01157427       0.00917617
C        0.52319447      -0.68986121      -1.27266105       0.01075245      -0.00353604       0.00006417
H        0.08593628      -1.68748438      -1.36933660       0.02092550       0.01990793      -0.01834221
H        0.22702760      -0.09465834      -2.14182128       0.01190993      -0.01426038       0.03852699
H        1.61655602      -0.76903119      -1.24568169      -0.02799803      -0.00305736       0.02139138
C        0.35616482      -0.93285382       1.21968895       0.03134211       0.00163961      -0.00311677
H        1.44471849      -1.00673741       1.31128222       0.01537774      -0.01353703       0.00680177
H       -0.05024260      -0.51933899       2.14150701       0.01998098      -0.00898393      -0.01010189
H       -0.05937864      -1.93106707       1.05522255      -0.00477270       0.01784614       0.00267539
N        0.14141611       2.19996193       1.21086102      -0.04334087      -0.00297992      -0.01790415
O       -0.38148041       3.24908793       0.89307755       0.03749666       0.01437674       0.03161232
O        0.27457971       1.82024856       2.35576273      -0.01348013       0.00734019      -0.06294359
