19
Properties=species:S:1:pos:R:3:forces:R:3 Coordinates=T from=T ORCA-job=T run=T Energy:=T 68.4361568=T energy=-151461.63171645976 pbc="F F F"
C        0.04278564      -0.08876554       0.05844939      -0.01773290       0.03919996      -0.00441361
H        1.68299041       1.24584068      -0.14846208      -0.00000713      -0.02327529      -0.02046611
Br      -1.95591259       0.02099277       0.25128154       0.00381671       0.00798389      -0.00531444
Br       3.97081925       0.21250375      -0.20112108       0.01405042       0.01585476       0.02719242
C        0.60273065       1.34634792       0.04494355       0.01247403       0.02683995       0.00793961
C        0.35251219      -0.88886083      -1.19664234      -0.00951959       0.00764959      -0.00055121
H       -0.07848782      -0.45087473      -2.09399869      -0.00604919      -0.01217456      -0.00497781
H        1.44248835      -0.92071637      -1.30910994      -0.01206821       0.00929483      -0.01762624
H       -0.02637361      -1.90757793      -1.08054829       0.01028754       0.00413534       0.01479364
C        0.58728325      -0.80889991       1.28342944      -0.01005271       0.00651272       0.00556296
H        1.67975435      -0.83971818       1.19684758       0.00124612       0.00334014      -0.01637547
H        0.32606688      -0.28952169       2.20287458      -0.01216849       0.02153176       0.01209725
H        0.19986357      -1.82976199       1.31314594      -0.00323430      -0.01729255       0.00252062
N        0.37612019       2.05726027       1.24813157       0.01026091       0.00388697       0.03647866
H       -0.57811900       2.38894550       1.30228478      -0.01774989      -0.01996138      -0.02029378
H        0.99806971       2.85007244       1.31627372       0.02389389      -0.01905667      -0.00606081
N        0.07070282       2.14586385      -1.17627148       0.00954749      -0.01352381      -0.01607889
O       -0.64808711       3.10068550      -0.95830941       0.00875751      -0.02284830       0.04223279
O        0.42626799       1.79735124      -2.27852322      -0.00101123      -0.00546203      -0.02725169
