17
Properties=species:S:1:pos:R:3:forces:R:3 Coordinates=T from=T ORCA-job=T run=T Energy:=T 161.9207829=T energy=-11479.966477892292 pbc="F F F"
C        0.12016488      -0.17048898       0.01345721      -0.02801867      -0.02245412      -0.04636050
H        1.61064461       1.31062340      -0.03217476      -0.08776621       0.01721456       0.00853909
F       -1.29848470      -0.25137573       0.16963819      -0.01983199       0.02800257       0.04901192
H        3.23339233       0.31476876       0.33433304      -0.05754144      -0.06113859      -0.01350395
C        0.49286770       1.31490314      -0.02207983      -0.01262833      -0.05649690       0.01776575
C        0.42460390      -0.82879246      -1.31592904       0.06279791      -0.04929432      -0.03675346
H       -0.13783804      -0.35392232      -2.12204885       0.05605072      -0.08318409      -0.01171778
H        1.49521862      -0.71252220      -1.49677110       0.10682571       0.00256638      -0.05695571
H        0.19190707      -1.89888991      -1.27301529      -0.07216657       0.04908744       0.05304393
N        0.74222071      -0.75710091       1.15498385       0.00987605       0.02360599      -0.11867962
H        1.75395015      -0.51249234       1.09065505      -0.01102970       0.06555320       0.01102327
H        0.67646161      -1.76822971       1.08774278       0.00390998       0.05240826      -0.01654746
C        0.04365829       1.98810740       1.21353364       0.04978186       0.12154774       0.05269544
N       -0.31273157       2.63496389       2.09798509      -0.00525532      -0.05598790      -0.04236768
N       -0.04158611       1.97254551      -1.21409680       0.00539978      -0.03210228       0.08679188
H        0.29420622       2.92675527      -1.25686265      -0.01025956      -0.04119961       0.02850074
H       -1.05317888       2.00383050      -1.14927516       0.01597141       0.04299534       0.02096145
