14
Properties=species:S:1:pos:R:3:forces:R:3 Coordinates=T from=T ORCA-job=T run=T Energy:=T 25.2539406=T energy=-7463.64103294034 pbc="F F F"
C        0.14641958      -0.08981158       0.03127983       0.03010467       0.00415951      -0.01571769
H        1.54298579       1.51024219      -0.08343299       0.01013697      -0.01600160      -0.02192417
F       -1.27010941      -0.22884270       0.17087441      -0.04785775      -0.00054215       0.00656760
H        3.35157938      -0.14491098       0.24098299       0.01258102       0.01671325       0.03601831
C        0.45629893       1.39144868      -0.00705276       0.00572109       0.01461161      -0.01327269
H        0.11224466       1.85442746       0.92106584      -0.01977885      -0.02802712      -0.00213171
H       -0.03958438       1.87068980      -0.85707861      -0.00466026       0.00930558      -0.01441255
C        0.51185984      -0.78950349      -1.26981465      -0.00162094       0.00882377      -0.00027190
H        0.01695789      -0.33233616      -2.13536062       0.01067196       0.01837792       0.02712543
H        1.60232570      -0.73090028      -1.37307191      -0.01979446      -0.00552598      -0.01370267
H        0.21478401      -1.84430953      -1.22352655       0.00396827       0.02986511       0.02827398
N        0.76264289      -0.66142182       1.19068468       0.00455747      -0.00425315      -0.03143042
H        1.78592845      -0.47854175       1.06930869      -0.00751882      -0.02671413       0.01268905
H        0.66560194      -1.67203435       1.12996406       0.03987687       0.00145918       0.00000707
