16
Properties=species:S:1:pos:R:3:forces:R:3 Coordinates=T from=T ORCA-job=T run=T Energy:=T 48.8299526=T energy=-22835.156289262697 pbc="F F F"
C        0.12291622      -0.20809423       0.11250439      -0.85346440       0.48798143       1.85695118
H        1.58293403       1.15004508       0.13442290       0.35489047       0.46595330       0.09852928
Cl      -2.38172136       0.00416525      -0.32088463      -0.42224074       0.12591472      -0.08861910
H        2.21641072       0.39094718      -1.77333809       0.23006187      -0.84016919       0.10731301
C        0.49938181       1.27120069       0.07897942       0.21513160       0.12616088      -0.46239895
H       -0.33509370      -0.62454356       1.02825229       0.35106594       0.60682509      -0.48151467
N        0.70657437      -0.95371993      -0.72289314      -0.24350788      -0.68594366      -0.17361361
H        0.66657889      -1.92112270      -0.47862530      -0.30164406      -0.74245152      -0.11935410
H        1.63872868      -0.29592912      -1.41743060       1.52332246       1.17812766      -1.11521774
N        0.17026008       2.00352330       1.34352133      -1.16017006       0.02592911      -0.58598668
O       -0.00519715       3.19825688       1.28557922       0.27746100       0.36299202      -0.19129222
O        0.06167943       1.36157956       2.35368640       0.32569741      -0.62787055       0.86529183
C        0.23849413       2.07608533      -1.19210050      -0.04460910      -0.17582034      -0.58110643
H        0.61485791       1.39734862      -1.96178198      -0.40181403       0.24835089      -0.17940207
H       -0.80818765       2.34885642      -1.42819223       0.46231048      -0.33428333       0.59674715
H        0.89623938       2.95867936      -1.28116735      -0.31137268      -0.20714923       0.45133693
