14
Properties=species:S:1:pos:R:3:forces:R:3 Coordinates=T from=T ORCA-job=T run=T Energy:=T 137.5808645=T energy=-17171.601596036082 pbc="F F F"
C        0.83873418      -0.10424300       0.10917231      -0.00308493      -0.00072456       0.01001979
H        1.71122819       1.67928815      -0.62591073       0.01017424       0.00185659      -0.02191900
F       -1.47862545      -0.16162756      -0.85529363      -0.00036502      -0.00822546      -0.00982058
F        2.03907274      -0.24473173       0.84542548      -0.00457868       0.00558146       0.02828500
C        0.77078017       1.41683525      -0.13917656       0.00493848       0.00503570      -0.01375270
H        0.02133882      -0.40667360       0.76178825      -0.00917245      -0.00979164       0.01118498
N        0.93747990      -0.82450058      -1.11072933       0.00353366       0.01378013      -0.00323999
H       -0.06811915      -0.73765484      -1.40972526      -0.01706300      -0.00791488      -0.00032210
H        1.06325733      -1.79945708      -0.85188634       0.00724384       0.01628540       0.00552997
C        0.67666455       2.14067639       1.13146549      -0.01822650       0.01079241      -0.01514011
N        0.67175438       2.69420755       2.13828325       0.00745446      -0.01687711      -0.01966529
N       -0.29898577       1.92186076      -1.09542007       0.00393706       0.00571127       0.01703714
O       -1.19549148       2.58395384      -0.63395739      -0.00917593      -0.01000404       0.01371442
O       -0.05770004       1.76695892      -2.26788289       0.01227167      -0.00563960       0.01821261
