16
Properties=species:S:1:pos:R:3:forces:R:3 Coordinates=T from=T ORCA-job=T run=T Energy:=T 46.9704451=T energy=-8971.752306119191 pbc="F F F"
C        0.69626112       0.00799376       0.26715812      -0.01272208      -0.01973306      -0.01076300
H        1.51407417       1.74148263      -0.63370774       0.00902757      -0.00576874      -0.02832340
F       -1.15833678      -0.14012338      -2.35805186       0.00008465      -0.01862709       0.01823877
H        1.48017248      -0.17145524       1.02406622      -0.01106578      -0.00778191      -0.00620285
C        0.62635067       1.51356372      -0.02711049       0.00717243      -0.00859714      -0.01295408
H       -0.26951049      -0.27383119       0.73351161      -0.03386250      -0.01051455       0.00310252
N        1.00743050      -0.75154525      -0.93557073       0.02778731      -0.00262784      -0.01154583
H        0.21625634      -0.59751339      -1.60634546      -0.00034701       0.01186580       0.03186607
H        0.97456488      -1.73929800      -0.70087878      -0.00583446       0.00805082       0.00052097
C        0.71011440       2.32015814       1.26531407      -0.00132437       0.00338954      -0.00573061
H       -0.13076169       2.07070019       1.92771198       0.01478158      -0.00985514       0.00659634
H        1.63843352       2.12045254       1.81364186      -0.01451652       0.01886043       0.01472177
H        0.65145031       3.39019293       1.04627919      -0.00603794       0.00398431      -0.00794763
N       -0.54534618       1.93668949      -0.78897874       0.00679717       0.02118207       0.00361640
H       -1.35322145       1.83485942      -0.17709795       0.00608735      -0.02735172       0.02079344
H       -0.74011739       1.23174039      -1.53755082      -0.00202278       0.04298793      -0.02467339
