12
Properties=species:S:1:pos:R:3:forces:R:3 Coordinates=T from=T ORCA-job=T run=T Energy:=T 48.7713886=T energy=-21413.254093128056 pbc="F F F"
C        1.02568075      -0.09940480       0.13826136       0.02466542      -0.02481593       0.00701097
H        0.98631559       1.88298105      -0.66784869      -0.00002138       0.00981616       0.01518382
F       -1.54367092       0.09233849      -1.32086575      -0.00787861       0.01018610       0.00017087
Cl       2.84219298      -0.00715076       0.63288103       0.01265805      -0.00682256      -0.01175978
C        0.43916771       1.29912153       0.07636494       0.00397334      -0.00837766       0.00499648
H        0.61575477      -0.64376666       0.99552415       0.01923793      -0.00560239       0.00537412
H       -0.59079649       1.11561498      -0.32784811      -0.00842751       0.00019571      -0.04157987
N        0.88734066      -0.71302871      -1.12102824      -0.00888160      -0.00853949       0.02211053
H       -0.11760990      -0.50075263      -1.41100842       0.02041039       0.01951950      -0.00144881
H        1.01457894      -1.71354148      -1.03157572      -0.02393436       0.00456001       0.00236833
C        0.42028540       1.99743270       1.35118445      -0.01571337       0.00071234      -0.02748448
N        0.37328777       2.55942077       2.35529865       0.00297299       0.01790438       0.03468298
