14
Properties=species:S:1:pos:R:3:forces:R:3 Coordinates=T from=T ORCA-job=T run=T Energy:=T 105.6951162=T energy=-22919.291614660957 pbc="F F F"
C       -0.05379825      -0.18082173      -0.00219486      -0.01722607      -0.02944826      -0.00242883
H        1.59663598       0.99312742       0.07007133       0.01032389      -0.01221723      -0.00294494
Cl      -1.90812100      -0.11362168      -0.04387636      -0.01286099       0.00189361      -0.01080945
F        2.76235172      -0.22465643      -0.10910541       0.00484285       0.00662555      -0.01484014
C        0.50153621       1.24662476       0.03930160      -0.00472265      -0.00410991       0.00351637
H        0.18139403      -0.67679464       0.93743131       0.00046216      -0.00684123       0.01415766
N        0.44834980      -0.94349506      -1.08537773      -0.00166295      -0.03123854      -0.00964376
H        1.47631467      -0.92770516      -0.85911958       0.00291552       0.00469331      -0.01586190
H        0.34898560      -0.36564043      -1.91682405       0.01776882       0.00325858       0.00987743
C        0.11379064       1.97611002       1.25500915       0.00264065       0.01844273       0.01318573
N       -0.18249972       2.59084704       2.18374077       0.00590242       0.01461107       0.02321286
N        0.18849129       1.96988184      -1.18382553      -0.00235636       0.01787888       0.00268990
H        0.84639722       2.72506589      -1.31503674       0.00430731       0.01065307      -0.01591147
H       -0.74515751       2.35983673      -1.14265438      -0.00792523       0.01224422      -0.01188608
