13
Properties=species:S:1:pos:R:3:forces:R:3 Coordinates=T from=T ORCA-job=T run=T Energy:=T 110.5120698=T energy=-81447.30805702423 pbc="F F F"
C        0.96673393      -0.04110428       0.02920335      -0.02847981       0.07892942       0.00502661
H        1.82735998       1.84733131      -0.34376180      -0.07213255      -0.02590846      -0.04871660
Br      -2.22111414      -1.00782427      -0.19259905      -0.06181597      -0.02064868      -0.04534497
F        2.22344881      -0.22099110       0.61724512      -0.02206664      -0.05673108      -0.04444460
C        0.81839392       1.49817281      -0.09068294      -0.00819783       0.04136884       0.00027366
H        0.22486288      -0.45253735       0.71800990       0.00389626      -0.00286889      -0.02703349
N        0.97466571      -0.62979112      -1.27427726       0.07011313       0.11530598       0.03449771
H       -0.00303011      -0.63189075      -1.57676759      -0.00026413      -0.06184988       0.04859681
H        1.19511935      -1.61260108      -1.15000440      -0.00687473      -0.01695266       0.02205692
C        0.46502402       2.11366557       1.19776334       0.03661436       0.01410178      -0.09080391
N        0.24555590       2.61963356       2.20482059      -0.00348417      -0.01490587       0.02504126
C       -0.06450357       1.97818002      -1.16515310       0.06808189      -0.01310205       0.07408850
N       -0.65956375       2.44086567      -2.03149837       0.00224515      -0.03630382       0.03753577
