14
Properties=species:S:1:pos:R:3:forces:R:3 Coordinates=T from=T ORCA-job=T run=T Energy:=T 143.9776757=T energy=-26979.06639669345 pbc="F F F"
C        1.01043687      -0.07658211      -0.00019388       0.00970049       0.01672206      -0.02796346
H        1.75343316       1.90759886      -0.06597233      -0.00517620      -0.02388852       0.00089179
Cl      -2.12046770      -0.35744198      -0.09552696       0.00087994       0.00028093       0.00834814
F        2.34692330      -0.23876156       0.39337410      -0.00907978       0.00125891       0.00343789
C        0.76153591       1.44420570      -0.05036351      -0.00796181       0.00840134       0.00831755
H        0.39356035      -0.52861774       0.77699842       0.01549623       0.02894813       0.00062559
N        0.87358600      -0.64582249      -1.30537880       0.00174037      -0.00616553      -0.01262317
H       -0.13147818      -0.65546169      -1.49474117      -0.01136673       0.01967111       0.01962601
H        1.14073597      -1.62102031      -1.22485396       0.01141690      -0.01490127      -0.01789373
N        0.16109741       1.97256109       1.24061870       0.02416767       0.01517666       0.00078112
O       -0.47527206       2.99450774       1.18069149      -0.01967016      -0.01091544       0.01563310
O        0.46855161       1.38417352       2.24984167      -0.01292258      -0.00593266      -0.00586286
C        0.03641468       1.96832933      -1.20637295       0.00915686      -0.00601273      -0.00008849
N       -0.40532611       2.45341558      -2.14816265       0.01011633      -0.01831489       0.00868871
