17
Properties=species:S:1:pos:R:3:forces:R:3 Coordinates=T from=T ORCA-job=T run=T Energy:=T 169.1718466=T energy=-85571.86982831587 pbc="F F F"
C        0.36649802      -0.18593606       0.13797247       0.06160433      -0.08046436      -0.07823947
H        1.62792715       1.44096085       0.29337990       0.10316501       0.05951699       0.02437279
Br      -2.42744007      -0.21202237       0.05126286       0.03826673       0.06964874       0.02729737
F        2.70167410       0.41898063      -2.08811783      -0.02007924      -0.09320680      -0.05264842
C        0.54550960       1.31999464       0.16860097       0.12194349      -0.04613596       0.05837630
N        0.81519362      -0.87007975      -0.82504588      -0.03471800       0.14379837      -0.00387252
H        0.72919770      -1.86534419      -0.63849925      -0.02185322      -0.03272782       0.04511508
H        1.97070389      -0.12604636      -1.78680100       0.05390076       0.00453796       0.03050751
N        0.23667214      -0.90235153       1.47382579      -0.04152258      -0.02744726       0.04635244
O        0.41911668      -0.23116234       2.46218591      -0.03965217      -0.05088832       0.03191111
O        0.10439016      -2.10207478       1.45134920       0.03038533       0.01012378      -0.07892676
C       -0.05090087       2.06485892       1.28234272       0.01985266       0.06140556      -0.06152886
N       -0.38245728       2.83221328       2.07051145      -0.12326262       0.00288721       0.04977256
C        0.16261145       1.98307134      -1.16019302      -0.00266970      -0.00623892       0.01511329
H        0.80559448       1.60975329      -1.95204208      -0.04344201      -0.06169513      -0.05375589
H       -0.88549249       1.78533410      -1.38092991      -0.03159697      -0.02271931      -0.01157636
H        0.33078768       3.05793176      -1.07823468      -0.05344090       0.05387048       0.01704289
