15
Properties=species:S:1:pos:R:3:forces:R:3 Coordinates=T from=T ORCA-job=T run=T Energy:=T 121.9061247=T energy=-29488.468869196662 pbc="F F F"
C       -0.01607230      -0.14475750       0.00307950      -0.33261356       0.00927568      -0.03966977
H        2.00599299       1.11401823      -0.13907999       0.14205437       0.05641900      -0.01856235
Cl      -1.88407604      -0.37332699      -0.03660284       0.29650063      -0.39511622       0.05322658
F        2.85802401       0.75822088      -0.47449207       0.02753572       0.01167298       0.06054214
C        0.31071268       1.30077728       0.06221248       0.60829748      -0.03006114      -0.26525089
N        0.57069719      -0.79716972      -1.07778906      -0.51839283       0.23664570      -0.52542047
H        0.42632012      -1.79825105      -1.11166216       0.00706468       0.27826799       0.26292615
H        1.53443517      -0.51347552      -1.15321014       0.29766184      -0.12147232      -0.18625544
N        0.37823528      -0.92064348       1.30809163      -0.40459848      -0.22319792       0.05119123
O        0.53467113      -0.31945224       2.33270802       0.10065090       0.22229030       0.29965670
O        0.49039002      -2.12075018       1.17540926       0.06037274      -0.06493713       0.07065490
C        0.01428664       2.09304282       1.20264855      -0.64908537       0.69657891       1.25509164
N       -0.24999922       2.77705860       2.10950465       0.41434114      -0.67849059      -1.04586281
C        0.07993684       1.98176905      -1.17353924      -0.24853987       0.09590235      -0.13064646
N       -0.12780094       2.55961042      -2.15408157       0.17623293      -0.08944985       0.14102909
