13
Properties=species:S:1:pos:R:3:forces:R:3 Coordinates=T from=T ORCA-job=T run=T Energy:=T 51.3929032=T energy=-14117.243629169254 pbc="F F F"
C        1.12805702      -0.04820056      -0.18372151      -0.01136102      -0.00089606      -0.02708425
H        0.91880706       1.89639581       0.75727974      -0.00143165      -0.00380654      -0.01985240
F       -1.76047327      -0.17875392       0.11976066      -0.00879063       0.00248170      -0.00791027
F        2.46093498       0.08980029      -0.62707392       0.00006143       0.01141662       0.01482802
C        0.47331681       1.32652321      -0.06226745      -0.00064262       0.02314392       0.00803723
H       -0.60067411       1.08084778       0.14213742      -0.00345642      -0.03864908       0.00739453
N        0.38827567      -0.84694182      -1.07241258       0.03107151      -0.03318879      -0.01385103
H       -0.62429517      -0.73724466      -0.75190346      -0.01395408      -0.00319610       0.00829740
H        0.68137891      -1.81414768      -1.00705468      -0.02232270       0.00750470       0.01296906
C        1.27840906      -0.64206699       1.18529032       0.01221733      -0.00378591       0.00677892
N        1.40479967      -1.14320761       2.21269569       0.00860572       0.00974598      -0.00207243
C        0.59868260       2.09188466      -1.29556097       0.00366143      -0.00109821       0.02904262
N        0.68159469       2.74414354      -2.23973520       0.00756792       0.03060061      -0.01511497
