16
Properties=species:S:1:pos:R:3:forces:R:3 Coordinates=T from=T ORCA-job=T run=T Energy:=T 97.7540370=T energy=-24992.877873227615 pbc="F F F"
C       -0.00151906      -0.15945079      -0.06619866       0.00291924       0.01395806      -0.00233023
H        1.55500041       1.19630688      -0.16665156       0.04033195      -0.00616297       0.01608173
Cl      -1.85666454      -0.26340849      -0.23790042      -0.02775791      -0.00649376       0.00043496
F        2.87036769       0.16613962      -0.46230307      -0.00160691      -0.02187511       0.00740311
C        0.44798473       1.31410945      -0.03268540       0.02231798       0.02448286       0.01201919
N        0.63431787      -0.81794032      -1.13312956      -0.01986023      -0.00268889      -0.03398735
H        0.51080545      -1.82017818      -1.06178366       0.01511936       0.01051377       0.00401153
H        1.67070489      -0.54396783      -1.03727441      -0.00944653      -0.00593966      -0.00362029
C        0.23056895      -0.79312707       1.25815901       0.02296114      -0.04370301       0.00746433
N        0.41995250      -1.34056957       2.25212665       0.01568349       0.01665655      -0.00168502
C        0.12582950       2.04779452       1.26697700      -0.01637221       0.02441828       0.01815433
H       -0.93077956       1.96213543       1.53586347      -0.03887654       0.01506718      -0.01997343
H        0.72679548       1.64286096       2.08343269      -0.00532907      -0.01971419      -0.00217957
H        0.36700401       3.10728340       1.16446850       0.01164772       0.01951823       0.00951675
C       -0.06760170       2.05023761      -1.18503546      -0.01018135      -0.03115078      -0.01117724
N       -0.44795048       2.70974423      -2.04830511      -0.00031218      -0.00350898       0.00019111
