15
Properties=species:S:1:pos:R:3:forces:R:3 Coordinates=T from=T ORCA-job=T run=T Energy:=T 115.7522709=T energy=-29488.335516451472 pbc="F F F"
C       -0.10177014      -0.10666721       0.05445417      -0.01149546      -0.01082610       0.01090573
H        2.16810669       1.02057365      -0.11072595       0.00319492      -0.00772378      -0.03221272
Cl      -1.97527644      -0.28240173      -0.03387551      -0.02743500       0.03692885       0.02702474
F        2.97096023       0.59308507      -0.41781593      -0.10178396       0.02078707       0.03361663
C        0.33679455       1.31490225       0.05256558       0.01382638      -0.03768638      -0.01963983
N        0.40009445      -0.76687819      -1.11999391       0.06988013      -0.00523931       0.03331862
H        0.24371192      -1.76419005      -1.05502154      -0.03615805       0.02089081      -0.02861476
H        1.39590864      -0.58612938      -1.19124012       0.03538173      -0.01040094      -0.03723266
C        0.23351805      -0.87255514       1.27642798       0.03933558      -0.02101431       0.01505502
N        0.51255279      -1.64327098       2.08309755       0.05334345      -0.00592036       0.02644941
N        0.08434782       2.09508232       1.22324128       0.03958074      -0.05165625       0.03494360
O       -0.00617546       3.30714328       1.10706856       0.06201877       0.01793984       0.02794953
O        0.02421264       1.51584984       2.30234281      -0.10778277       0.01360188      -0.02845522
C        0.12540461       2.02320247      -1.16539543      -0.07254277       0.03668077       0.00257028
N       -0.01751730       2.58813185      -2.16094847       0.05569341       0.00799382      -0.06508028
