13
Properties=species:S:1:pos:R:3:forces:R:3 Coordinates=T from=T ORCA-job=T run=T Energy:=T 82.2108483=T energy=-81447.63514062378 pbc="F F F"
C        1.26592100      -0.05966554      -0.10506052      -0.06153213       0.09425117      -0.03507783
H        1.34048860       1.96650458       0.61667244      -0.00819842      -0.01991106      -0.02185078
Br      -2.47874025      -0.20859955      -0.02455066      -0.02361674       0.02782618       0.00625176
F        2.64093276       0.06711820      -0.37398195       0.07163678      -0.04563595      -0.00941583
C        0.68328109       1.34710602       0.00229661      -0.11406598       0.04551783       0.02215545
H       -0.30481552       1.27288499       0.46805113      -0.10603475      -0.03687198       0.06789240
N        0.64053912      -0.78268991      -1.14441227       0.24015718       0.11376213       0.26209827
H       -0.32917442      -0.48238921      -1.23122531      -0.24694134      -0.15180178       0.02421575
H        0.63120308      -1.77134408      -0.95352887       0.00613840      -0.20293942      -0.04150122
C        1.23540420      -0.73226770       1.23993600       0.03814601       0.06725179      -0.60662874
N        1.26580758      -1.33266908       2.21735792       0.00276995      -0.01215943       0.24721653
C        0.47973726       1.98716127      -1.29894186       0.12530309       0.09235925       0.25409558
N        0.27377111       2.57175513      -2.26525093       0.08092365       0.03169581      -0.16294582
