14
Properties=species:S:1:pos:R:3:forces:R:3 Coordinates=T from=T ORCA-job=T run=T Energy:=T 86.2630752=T energy=-26433.351044080584 pbc="F F F"
C       -0.09208551      -0.12489683       0.01448462      -0.01015746      -0.03745393       0.01248355
H        2.12383159       1.02732276      -0.16644620      -0.01467806      -0.03998498      -0.00334035
Cl      -1.97111440      -0.34862778      -0.08611671      -0.04370167      -0.02274985      -0.02389550
F        2.93166352       0.59626146      -0.46998502      -0.02108835       0.03667962       0.01918644
C        0.32519768       1.29879857       0.04649533       0.02309524      -0.03174950       0.01366254
N        0.43739390      -0.80312698      -1.13046482       0.00440516       0.00792492      -0.00829711
H        0.28315417      -1.80065473      -1.06919390      -0.03719915       0.02928543      -0.01939878
H        1.43024514      -0.60693610      -1.18969885       0.05106961      -0.02452688      -0.05726933
C        0.23337410      -0.82278774       1.28067908       0.02899742      -0.01255546       0.05820340
N        0.52515316      -1.44830476       2.20069077       0.01142525       0.02770383      -0.00247867
C        0.12711970       2.01548164       1.25867263      -0.00492748       0.00817086       0.01508241
N        0.00129460       2.59601032       2.25030147       0.00194266       0.03547188       0.04303489
C        0.11539513       2.04127940      -1.15178112       0.01698937      -0.00176525      -0.00769946
N       -0.01043862       2.66695927      -2.11483975       0.00464159       0.02455994      -0.04638912
