14
Properties=species:S:1:pos:R:3:forces:R:3 Coordinates=T from=T ORCA-job=T run=T Energy:=T 217.9144868=T energy=-80443.69524353358 pbc="F F F"
C       -0.13369817      -0.05388044      -0.12852452      -0.02183499      -0.01607456      -0.03392379
H        1.19970093       1.54335288      -0.60449043      -0.00702329       0.03768035       0.01956096
F       -1.47104722      -0.09389865      -0.58233193      -0.06951050       0.04244985      -0.01162542
Br       3.70477670       0.32290845       0.08697669      -0.01587829       0.04333303       0.04639039
C        0.30520959       1.41565082       0.01436616      -0.01473228      -0.04285735      -0.03711740
H       -0.51072018       1.99981682      -0.41959775      -0.00079608      -0.01798317       0.00609301
N        0.66032497      -0.72489617      -1.09147689       0.00039112       0.01004604      -0.01717782
H        0.52709533      -1.72748268      -1.05536465       0.00356005       0.02941627       0.04229604
H        1.64996196      -0.51333952      -0.94304430       0.05898626      -0.00947331       0.00583211
C       -0.20845832      -0.77882605       1.17575968       0.04036533      -0.04595062       0.07606301
N       -0.25513857      -1.43990021       2.11549178      -0.02923774       0.03657085      -0.01665421
N        0.49876709       1.82567323       1.40096314       0.03059444      -0.05525732      -0.06763615
H        0.63719536       2.83003866       1.40354736       0.00106535      -0.03062371       0.05098953
H        1.38314182       1.42966983       1.71382320       0.04394907       0.00614160      -0.04879205
