17
Properties=species:S:1:pos:R:3:forces:R:3 Coordinates=T from=T ORCA-job=T run=T Energy:=T 91.4668436=T energy=-23989.55833870682 pbc="F F F"
C        0.45042863      -0.26427248       0.18361753       0.03764999       0.11794469       0.03460275
H        1.71012072       1.38828987       0.07992660       0.01622291      -0.07093642       0.23964502
Cl      -2.62604048      -0.09918821      -0.33230422       0.17177339       0.16863639       0.06061184
F        2.67767338       0.56188436      -2.09735624      -0.05441454      -0.13260946       0.02174345
C        0.62352619       1.24956200       0.15083832       0.03479532       0.10243193       0.00250933
N        0.96894335      -0.96895375      -0.73451074      -0.08637372       0.03034154      -0.08180611
H        0.80714658      -1.96029925      -0.60273156       0.00146882      -0.11891823      -0.00997537
H        1.95742994       0.00270465      -1.81136642       0.06636172       0.13097067      -0.00874277
C       -0.08779122      -0.86926320       1.39449142      -0.01533743      -0.15898661      -0.33613003
N       -0.32874733      -1.40161106       2.38315315      -0.05102134      -0.10447668       0.29440059
C        0.08720084       1.93067675       1.40716650       0.08197212       0.10459965       0.07241850
H       -1.01054365       1.91705248       1.43338593       0.18657855      -0.10110607      -0.05245497
H        0.47020430       1.46576920       2.31945320      -0.05080458      -0.04755052       0.08979177
H        0.43885158       2.96367466       1.41416326      -0.09939799       0.17577338      -0.03197059
N        0.11731060       1.77515040      -1.09359211       0.01007378      -0.13427133      -0.14076559
H        0.60290374       2.62936048      -1.33026804      -0.31536697       0.02994281      -0.01201449
H       -0.89299345       1.86845526      -1.05471913       0.05324738       0.00968605      -0.14066022
