13
Properties=species:S:1:pos:R:3:forces:R:3 Coordinates=T from=T ORCA-job=T run=T Energy:=T 92.5068918=T energy=-33730.41172466932 pbc="F F F"
C       -0.01151286      -0.08707994       0.01676331       0.01395770      -0.00070522       0.00257390
H        1.71694068       1.15876448       0.26944192       0.00295265      -0.02936037       0.00375043
Cl      -1.83177387       0.14448556      -0.25054740       0.02037762      -0.01657454      -0.02241598
Cl       3.63333789       0.00567474      -0.88898221      -0.00299037       0.02335347       0.01086999
C        0.63104606       1.29601315       0.16500332       0.01943527       0.01063401       0.00472194
H        0.47300302       1.83007750      -0.77394574      -0.00215022      -0.00209241      -0.00432339
N        0.55497181      -0.74326012      -1.09452114       0.00402391      -0.01269356      -0.00951263
H        0.38279443      -1.73900842      -1.07526437      -0.00873578       0.01352716      -0.00739181
H        1.57142825      -0.56720739      -1.15624212      -0.02454396       0.00920498      -0.01938668
C        0.06240869      -0.85720968       1.27994070      -0.03362012      -0.00411393       0.00483015
N        0.13872461      -1.50160368       2.22850341       0.00813193      -0.02137568       0.03517421
C        0.10114494       2.07816846       1.27654216      -0.00826207      -0.00217182       0.02144114
N       -0.30551976       2.69948008       2.15403097       0.01555235       0.02237397      -0.01482400
