16
Properties=species:S:1:pos:R:3:forces:R:3 Coordinates=T from=T ORCA-job=T run=T Energy:=T 124.4760966=T energy=-15187.159870927786 pbc="F F F"
C       -0.06336397      -0.14762041       0.10084870       0.01543672       0.01404647       0.01542396
H        1.60603112       1.15089910       0.02317061      -0.00138686      -0.00241773      -0.01163915
F       -1.48964825      -0.04596340       0.06512711       0.03493298       0.00517924      -0.03833970
F        2.58926619       0.35907707      -1.44596989      -0.03925924      -0.01368506      -0.00057304
C        0.51249511       1.28189264       0.07429851      -0.00571639       0.00089113       0.00107158
N        0.42852508      -0.87440629      -0.98082565       0.01852237       0.02619169       0.01410794
H        0.43087183      -1.86761587      -0.80625340       0.00019515      -0.04182271      -0.00183794
H        1.39571020      -0.48737599      -1.27962665      -0.04842107       0.00462212      -0.01051195
C        0.17193501      -0.81600772       1.41816817      -0.01904723       0.01783346       0.03238148
N        0.36417451      -1.38622828       2.39871069       0.02632302      -0.00145934      -0.02953090
C        0.11354033       2.05446217       1.25001347       0.00041791      -0.04572457       0.01315726
N       -0.17902451       2.69754865       2.15841969      -0.02206402       0.03035194       0.02139291
C        0.13158806       2.00235641      -1.22291381       0.00057992       0.01697708      -0.00923364
H        0.69107522       1.51287014      -2.01699079       0.00314329       0.00308411      -0.02163070
H       -0.94466012       1.97159409      -1.40252080      -0.00245162      -0.05904229      -0.01649532
H        0.45072345       3.04608975      -1.17632691       0.02249624       0.02208231       0.03406316
