16
Properties=species:S:1:pos:R:3:forces:R:3 Coordinates=T from=T ORCA-job=T run=T Energy:=T 58.7506674=T energy=-11672.74418141591 pbc="F F F"
C        0.00698268      -0.02894856      -0.01930655      -0.01883991       0.01084212      -0.01273403
H        1.53317934       1.37990068      -0.19984033       0.01455779      -0.02030076       0.01896812
F       -1.41159881      -0.05639764      -0.15423830      -0.00167797      -0.00812384       0.00124235
F        2.93561401      -0.15474456      -0.07222603       0.00752361       0.00978708      -0.01673656
C        0.46906273       1.42117169       0.05857611       0.00156549       0.00543909       0.00040676
H       -0.09088497       1.97323039      -0.70199341       0.00256238      -0.01185500      -0.01530244
N        0.58503673      -0.57759515      -1.21534325      -0.00611011      -0.00357427      -0.01537657
H        0.35155161      -1.56662164      -1.24112999       0.01172124      -0.01067182      -0.00306868
H        1.61427985      -0.51593497      -1.00900323      -0.00560900      -0.00605337       0.01188887
C        0.34916382      -0.81999389       1.23213888      -0.01056735       0.01478270      -0.01321057
H        1.44442843      -0.80136299       1.28808777      -0.01243255       0.00277960      -0.00895769
H       -0.12389833      -0.39004030       2.12006802       0.03063093       0.00575675       0.01811882
H        0.00350681      -1.85403664       1.11513920      -0.00621912       0.00899715       0.00308387
N        0.22982284       2.04255307       1.37287202      -0.00757770       0.00033721       0.01395023
H        0.38743124       3.03938804       1.27328206      -0.00005872       0.00619824       0.00590086
H        0.97030365       1.72044357       1.98865203      -0.00569880      -0.00745265       0.00997102
