18
Properties=species:S:1:pos:R:3:forces:R:3 Coordinates=T from=T ORCA-job=T run=T Energy:=T 76.3736698=T energy=-10478.264220412471 pbc="F F F"
C        1.16327767      -0.01748805       0.24053084       0.01630438       0.01090588      -0.02245064
H        1.62294794       1.70868004      -0.88770132      -0.01182405      -0.02394668       0.03139762
F       -1.63332680      -0.50338876      -1.11633336       0.00192861       0.02075490       0.02618106
H        2.19441728      -0.09332560       0.61139169      -0.00041498       0.00898376      -0.00130256
C        0.95158758       1.47782165      -0.04533679       0.01399182      -0.02512744       0.01381563
N        1.06493749      -0.75643130      -1.02213904       0.00862272       0.01170541      -0.02034539
H        0.05389637      -0.75146071      -1.26479070      -0.00565505      -0.00892967       0.00649190
H        1.27763970      -1.72967908      -0.81948137       0.00769902       0.00373685      -0.00236252
C        0.19487884      -0.55635148       1.30279634       0.01665922       0.01468060      -0.01816056
H        0.48474786      -1.57849393       1.58100579      -0.00618410      -0.00615792      -0.01236850
H        0.19186877       0.04172713       2.22293808      -0.03318894       0.02704296       0.00236519
H       -0.80067958      -0.59030763       0.84989730      -0.01146923      -0.03240200       0.00884417
N        1.45334107       2.26970911       1.10002112      -0.00800967      -0.00624342       0.01318585
H        0.70336295       2.22324348       1.78596571       0.00247003      -0.00277517       0.03876182
H        1.43996147       3.24283213       0.80664767      -0.01637097       0.00844377      -0.02557329
N       -0.43784405       1.79062572      -0.34615572       0.02722297      -0.02616739      -0.00265171
H       -0.97393517       0.94910854      -0.65559187      -0.00284681       0.01666471      -0.02992336
H       -0.47798557       2.45959873      -1.10451017      -0.01905372       0.01043266      -0.02210085
