18
Properties=species:S:1:pos:R:3:forces:R:3 Coordinates=T from=T ORCA-job=T run=T Energy:=T 104.0450877=T energy=-14535.447007822075 pbc="F F F"
C        0.02964617      -0.05849279       0.01237256       0.01969056       0.05666953       0.02519000
H        1.59044833       1.36508871      -0.20218833      -0.06250814      -0.00613100      -0.01443143
F       -1.37232609      -0.09576326       0.01700341       0.02740283       0.04880981       0.05958850
H        2.97346867      -0.76166154       0.13227337       0.00732761       0.02426225       0.01129837
C        0.51152257       1.40554441      -0.01711707      -0.03758765       0.06877372      -0.02372723
N        0.45546624      -0.70014831      -1.20246690      -0.02940822       0.00441454       0.06083974
H        0.08218991      -1.64457127      -1.18693112       0.01597129      -0.02034084      -0.00287543
H        1.48065050      -0.79849887      -1.08971916      -0.02978984      -0.00086080      -0.02501980
N        0.46847182      -0.62250615       1.26079825       0.01403427      -0.03643759      -0.07234096
H        1.49741481      -0.74329699       1.12892588       0.00099135      -0.01067863       0.02061093
H        0.08319852      -1.56119274       1.30299869       0.02540091      -0.06183729       0.01685136
C        0.16719169       2.19478358       1.23287435      -0.01127136      -0.01343974       0.00997913
H       -0.88461607       2.06921658       1.48966103      -0.01953057       0.02031486      -0.05441392
H        0.76641616       1.81481683       2.05821740       0.02126579      -0.00625603       0.00339733
H        0.37443830       3.26124078       1.09223752       0.01327840      -0.05655291       0.00473881
N       -0.09101703       2.10046545      -1.21420329       0.00151841      -0.01829494      -0.03757126
O       -1.23025606       2.50917384      -1.10735069      -0.05874196       0.02058512       0.00656901
O        0.59001308       2.24045057      -2.20513069       0.09352320      -0.00779704       0.02712698
