16
Properties=species:S:1:pos:R:3:forces:R:3 Coordinates=T from=T ORCA-job=T run=T Energy:=T 54.3486882=T energy=-11673.334624561354 pbc="F F F"
C       -0.05626374      -0.05814604      -0.26609920       0.01745214      -0.00341611       0.02434126
H        0.04398109       1.90716105      -1.04190671       0.03332542       0.01222791      -0.02186199
F       -1.09233352      -0.40580961      -1.16989747       0.01494296       0.01205159       0.01506844
F        2.28121746      -0.50300195       1.51286087       0.01530051      -0.01163128      -0.01473168
C       -0.14348963       1.44754738      -0.06662780      -0.01645204       0.02336348      -0.00671776
H       -1.17900246       1.66495041       0.21372220      -0.03861990      -0.00037953       0.01294183
N        1.18637989      -0.41660884      -0.91211616       0.02434086       0.00043727      -0.01344677
H        1.09098958      -1.39863031      -1.16238202       0.00212686       0.00228485      -0.01944367
H        1.86071948      -0.42469005      -0.11212669       0.00473867      -0.03155760      -0.00413634
N       -0.34277448      -0.74636802       0.97571351      -0.02772875      -0.01948983       0.03067931
H        0.58501948      -0.74440672       1.45557601      -0.01282932       0.01070725      -0.01671748
H       -0.51298892      -1.71723311       0.72657594       0.01886914      -0.02736123      -0.00481749
C        0.81200874       1.99282860       0.98936545       0.00214347       0.02040080      -0.00749232
H        0.55393384       1.60382970       1.97668403      -0.01493089       0.02229238      -0.01673614
H        1.83869159       1.67306489       0.81304758      -0.00103511      -0.02955378       0.03640612
H        0.76033423       3.08826680       1.01738523       0.00494511       0.01981305      -0.00246509
