10
Properties=species:S:1:pos:R:3:forces:R:3 Coordinates=T from=T ORCA-job=T run=T Energy:=T 64.0037153=T energy=-87167.84108527107 pbc="F F F"
C        0.95354738      -0.00149823      -0.14328441      -0.01201690      -0.00365839      -0.02294481
H        1.07429217       2.01242430       0.63743739       0.00116281      -0.03262338       0.00563993
Cl      -1.89128347      -0.37531709       1.38209953      -0.01081412       0.01351152       0.00903237
Br       2.84660172      -0.16490775      -0.63323177       0.02468643       0.01648736       0.01792811
C        0.50103950       1.44800205      -0.10399413      -0.00773567       0.03286863       0.02279065
H        0.38779398      -0.57353321      -0.87261199      -0.01757881      -0.01383813      -0.02066538
H        0.81664576      -0.45429377       0.83415109       0.00979412       0.01507846      -0.00988765
H       -0.54472906       1.41000508       0.23149569       0.02917101      -0.01483326      -0.00930505
C        0.60675660       2.14013701      -1.38876923      -0.01824723       0.03020242      -0.01088190
N        0.68350585       2.72190157      -2.40695226       0.00157838      -0.04319522       0.01829372
