11
Properties=species:S:1:pos:R:3:forces:R:3 Coordinates=T from=T ORCA-job=T run=T Energy:=T 127.6195324=T energy=-147169.7329935709 pbc="F F F"
C        1.00149706      -0.00428086       0.00034131       0.02463871      -0.00244317       0.00006817
H        1.68305589       2.05171782      -0.00922119      -0.00031091      -0.03136822       0.00110132
Br      -2.08651616      -0.24369707       0.00208588       0.00428434      -0.00832235       0.00143973
Br       2.95381462      -0.33133946       0.01588834      -0.02269000       0.02776153       0.00072744
C        0.72201236       1.52033130      -0.00180502      -0.00286806      -0.03512776      -0.00444347
H        0.60691610      -0.48662955      -0.88666549      -0.00336659       0.00392352       0.02262209
H        0.59248359      -0.48727932       0.88028131      -0.00532713       0.00427161      -0.02379278
C        0.04285431       1.97378947       1.22011114      -0.01662067       0.03502659       0.01361089
N       -0.33341257       2.43247430       2.23466892       0.01959618      -0.01408029      -0.01480908
C        0.02857032       1.96859523      -1.21782896      -0.01041066       0.02374626       0.00834281
N       -0.35589552       2.42524812      -2.23000623       0.01307477      -0.00338774      -0.00486714
