13
Properties=species:S:1:pos:R:3:forces:R:3 Coordinates=T from=T ORCA-job=T run=T Energy:=T 42.0296083=T energy=-78437.65039925075 pbc="F F F"
C        0.36088500      -0.04373860      -0.26288971       0.01384725       0.17455296      -0.01610945
H        2.33356126       1.22618992       0.30151229      -0.11434878      -0.06242416      -0.10255534
Br      -2.35573640      -1.21039244       0.29715843       0.03311733      -0.02183331       0.03762185
F        3.11509092       1.42237055       0.75906931       0.16112131       0.01477498       0.03419627
C        0.26026286       1.30562154      -0.15559645      -0.02523740      -0.09591492      -0.03711798
H        0.30203062      -0.53901586      -1.22228414       0.00963997      -0.00620860      -0.04819410
H        0.54232839      -0.67021375       0.60273262      -0.02674778       0.12425077       0.01005703
C        0.14550457       2.00079696       1.18350983      -0.02507841       0.00008147      -0.06136116
H       -0.90213334       1.95758824       1.49269365      -0.01746120       0.00346384       0.06274508
H        0.75806614       1.49095883       1.93161903      -0.12783510       0.00450818      -0.02793160
H        0.46501950       3.04501962       1.13284493       0.02063392      -0.04089301      -0.02980049
C       -0.04885651       2.07950260      -1.33164303       0.10333602      -0.19880416       0.26426000
N       -0.27899341       2.73400224      -2.28225678      -0.00498715       0.10444594      -0.08581010
