13
Properties=species:S:1:pos:R:3:forces:R:3 Coordinates=T from=T ORCA-job=T run=T Energy:=T 36.6916465=T energy=-81922.78108964015 pbc="F F F"
C        0.29021705      -0.06390461      -0.18493816       0.02754284       0.00582624      -0.01454084
H        1.65831597       1.47637064      -0.51612180       0.02329892      -0.03609427      -0.00761849
Br      -1.59951878      -0.41806887       0.15041750      -0.00806400      -0.01293151      -0.00508161
F        2.22681417       0.29197900       1.77240878      -0.01083753      -0.01928173       0.01847202
C        0.61381841       1.41469644      -0.17536857      -0.00064471       0.03125222      -0.02303794
H        0.51805701      -0.51541830      -1.14705079       0.01082729      -0.00447796      -0.03027603
H        0.89904473      -0.45805257       0.63819418       0.00479840      -0.00381591       0.02057632
N        0.37593516       1.97857532       1.11099014       0.01254762       0.02036199      -0.00200770
H        0.68546885       2.94416274       1.09731254      -0.00584817       0.02828823       0.02777453
H        1.07420803       1.41490534       1.66838478       0.00260036      -0.01242971       0.00243037
N       -0.15080645       2.13295723      -1.27293690      -0.03626831       0.00318649       0.00095343
O       -0.83502270       3.11152300      -0.98465721      -0.00672746       0.03775382      -0.00967579
O        0.00351853       1.70352464      -2.41918447      -0.01322525      -0.03763791       0.02203172
