13
Properties=species:S:1:pos:R:3:forces:R:3 Coordinates=T from=T ORCA-job=T run=T Energy:=T 42.3354801=T energy=-85974.72747822893 pbc="F F F"
C        0.08578410       0.00074208       0.06361391       0.06356155       0.03287459      -0.02976360
H        2.18561775       1.00761743      -0.14321601      -0.04059293       0.08916387       0.09442781
Br      -1.89092178      -0.44055037       0.19567373      -0.01404625      -0.05038634      -0.01903176
F        3.02711667       0.58953411      -0.26695965       0.06003365      -0.03152612      -0.01376811
C        0.38158956       1.43074546       0.00056548      -0.10716711      -0.02488549      -0.00681384
H        0.41998867      -0.52496481      -0.82445186      -0.03171813       0.02253103      -0.02086679
H        0.50227743      -0.42476945       0.97025709      -0.04431374      -0.04878356      -0.01864077
N       -0.01550230       2.13419857       1.19985556       0.08641930       0.00750933      -0.00139644
O       -0.60689891       3.21510524       1.14852859       0.05177386       0.05501151      -0.04830514
O        0.25562193       1.55891985       2.26700838       0.02372479       0.00920725       0.02848614
N        0.10578066       2.10042894      -1.24219947      -0.07634244      -0.08571770      -0.00393503
O        0.33976064       3.30883668      -1.34639099       0.01454782       0.08678624       0.05376869
O       -0.25954458       1.39430622      -2.19849473       0.01411960      -0.06178462      -0.01416116
