12
Properties=species:S:1:pos:R:3:forces:R:3 Coordinates=T from=T ORCA-job=T run=T Energy:=T 32.1135841=T energy=-88670.09296105552 pbc="F F F"
C        0.31495448       0.07362863       0.65476066      -0.00255573       0.02067130      -0.01665003
H        1.05847696       1.23776055      -0.95374593      -0.02367055      -0.00727401      -0.01917386
Br       0.50986352      -0.58816766      -2.85221509       0.00928269      -0.00411978       0.00918567
Cl       1.87302258      -0.57300986       1.26062418       0.02978707      -0.02451044       0.01860924
C        0.52245357       1.42768942      -0.01518112       0.01114790       0.02726709      -0.00705211
H       -0.04196463      -0.62467541      -0.10119652      -0.03959476       0.00147040      -0.00147043
H       -0.35038245       0.16572905       1.51367402       0.00843739      -0.01813278      -0.00097167
N        1.16365727       2.38839438       0.89882075       0.00905027       0.00519614       0.00533042
H        1.32635409       3.24840468       0.38506636      -0.01174629      -0.01227282       0.00987445
H        2.07561339       2.01155229       1.13407596       0.00247316       0.01298663       0.00079233
C       -0.80635668       1.95972424      -0.35754064       0.02577347      -0.00590329       0.02572758
N       -1.86187213       2.43558951      -0.55491308      -0.01838462       0.00462154      -0.02420162
