13
Properties=species:S:1:pos:R:3:forces:R:3 Coordinates=T from=T ORCA-job=T run=T Energy:=T 42.1835815=T energy=-77870.81726047519 pbc="F F F"
C        0.37495770      -0.01478775      -0.27027847       0.03298073       0.02941932      -0.00400118
H        1.64182737       1.59526266      -0.46768951      -0.01747865      -0.02798875      -0.02509238
Br      -1.49888527      -0.54840575       0.00756823      -0.03770376      -0.01287534      -0.00130793
F        2.21365267       0.27751415       1.81671337      -0.02097488      -0.01674646       0.01750944
C        0.57220796       1.48622205      -0.21822171      -0.00539119       0.01507971      -0.01154070
H        0.63509160      -0.40788498      -1.25231441       0.02643709       0.00652161      -0.01331371
H        0.98309420      -0.41907930       0.54736996       0.01332324      -0.02303273       0.01826193
N        0.29669535       1.94735690       1.13426817      -0.01144569      -0.00917416      -0.01240056
H        0.61632577       2.91199439       1.18950844       0.02379818      -0.01065942       0.02237663
H        0.97908329       1.37006389       1.68624017       0.02190119       0.03585395       0.02288181
N       -0.19184144       2.17650953      -1.25913865      -0.00511107       0.00049591      -0.00755985
H        0.06430759       3.15867099      -1.21601933      -0.00594789       0.02491426      -0.02079060
H       -1.16423682       2.13143321      -0.96558625      -0.01438729      -0.01180791       0.01497709
