15
Properties=species:S:1:pos:R:3:forces:R:3 Coordinates=T from=T ORCA-job=T run=T Energy:=T 16.8445757=T energy=-19500.42969171193 pbc="F F F"
C        0.34504864      -0.06187438      -0.17757591       0.00072698      -0.03964747       0.00756310
H        1.62268958       1.52059542      -0.33945473      -0.02293069       0.01350060      -0.00477416
Cl      -1.39933872      -0.53996062       0.07063342       0.00161359      -0.01352316      -0.00304260
F        2.36957232       0.03339444       1.61122581      -0.00456922       0.02120011       0.01706386
C        0.53693004       1.44441704      -0.19870290      -0.01701532      -0.02993538       0.01737333
H        0.62295523      -0.51032578      -1.13621541       0.02025818       0.01487810       0.02379390
H        0.97773000      -0.42952663       0.65414854      -0.00836706       0.00579685      -0.02556211
C        0.25752506       2.03277216       1.18174100       0.01141721       0.00371956       0.03724883
H       -0.78335692       1.86822185       1.48160946       0.00974818       0.02291792      -0.00489206
H        0.94670873       1.51164174       1.85476862       0.00514861      -0.04836371      -0.00148202
H        0.45416374       3.11188256       1.19965015       0.00851072       0.01126226      -0.02581877
C       -0.21094112       2.14272224      -1.32856535      -0.01164585       0.00449855      -0.01743695
H        0.03879844       1.70125079      -2.30036326       0.00441265       0.01474580      -0.02759863
H       -1.29267631       2.05310173      -1.19193102      -0.00770161       0.00781094       0.01393090
H        0.03754129       3.20912744      -1.36393842       0.01039363       0.01113904      -0.00636662
