13
Properties=species:S:1:pos:R:3:forces:R:3 Coordinates=T from=T ORCA-job=T run=T Energy:=T 38.8507178=T energy=-7878.6330664924635 pbc="F F F"
C        0.09625731       0.09622086      -0.15949749       0.00434675       0.01148720      -0.01696623
H        1.41757363       1.61475041      -0.82355186      -0.00716359      -0.01250918      -0.00997312
F       -0.21667461      -0.33037504      -1.47171242       0.00098796       0.00219875       0.03450211
H        2.77430303       0.14094913       1.69783519       0.01353286       0.00425412       0.02065148
C        0.51467383       1.55303230      -0.19224611       0.00364345       0.00346822      -0.00282795
H        0.91319835      -0.51361735       0.23436744      -0.02507115      -0.00535914      -0.01516656
H       -0.80927355      -0.01389277       0.44690351       0.02344533      -0.00299822      -0.01689970
N        0.73121086       1.95204774       1.18127003      -0.01679844       0.00370911       0.02008714
H        1.11987215       2.89056023       1.15807791      -0.00409899       0.02237686       0.01115187
H        1.48971691       1.33072997       1.54625252      -0.00097029      -0.02572257      -0.01923648
N       -0.48479180       2.44293512      -0.79474776      -0.00043937       0.01123368      -0.01475738
H       -1.29972073       2.40800484      -0.18811338       0.01739763       0.00316457       0.02656461
H       -0.75577537       2.04785455      -1.68964760      -0.00881212      -0.01530340      -0.01712978
