13
Properties=species:S:1:pos:R:3:forces:R:3 Coordinates=T from=T ORCA-job=T run=T Energy:=T 40.7586295=T energy=-24425.086841918688 pbc="F F F"
C        0.96658963       0.06281278      -0.10506218       0.00756394       0.00017409       0.03226133
H        1.73745529       2.09518127      -0.25047627      -0.00594787      -0.00356696      -0.01320039
F       -1.73331249       0.00115171      -0.48676987       0.02160035      -0.00793414      -0.00299324
Cl       2.38282064      -0.41952827       0.89960247       0.00708023      -0.00214453      -0.02475023
C        0.78781871       1.56383891      -0.11835130      -0.00932028      -0.00508118       0.01318695
H        1.16854267      -0.25963976      -1.12519879      -0.01526243       0.02760671       0.03347875
H        0.03829436      -0.39168046       0.24433746       0.00777652      -0.01528778      -0.00156842
N        0.37399565       2.05211008       1.29844184      -0.04007256      -0.00379069      -0.01689680
O        0.39755785       3.28092139       1.43961669       0.02952245       0.01534494       0.01451618
O       -0.00015189       1.26227166       2.15966751      -0.00054634      -0.01613061      -0.03275172
N       -0.17947868       1.91041936      -1.09361856       0.00110699      -0.01383755       0.01836290
H       -0.43780166       2.88420386      -0.98578845       0.01253195      -0.01591033      -0.02192575
H       -0.99517008       1.22688745      -0.94258055      -0.01603295       0.04055805       0.00228044
