13
Properties=species:S:1:pos:R:3:forces:R:3 Coordinates=T from=T ORCA-job=T run=T Energy:=T 34.6781499=T energy=-34222.01638012185 pbc="F F F"
C        0.09799344      -0.07997333      -0.17461180       0.03290022      -0.00252077      -0.00941057
H        1.62181697       1.34598564      -0.45951358      -0.00511608      -0.02818654       0.00401753
Cl      -1.66516979      -0.21831238       0.10211621       0.01826238      -0.01207859      -0.00671661
Cl       3.18603376       0.27310550       1.49061465      -0.00949676      -0.00510739       0.01053829
C        0.57158072       1.35714671      -0.13364101      -0.00417931       0.01157234       0.00754000
H        0.31667627      -0.51869229      -1.14435933      -0.04025445      -0.02753843      -0.02222974
H        0.62034841      -0.62104739       0.61131593       0.02446927       0.03629858       0.03426786
N        0.36793798       1.95648026       1.15528393      -0.01842911       0.01106685       0.02525108
H        0.52287118       2.95445658       1.07637628       0.01539774      -0.00344735      -0.01734847
H        1.12735590       1.57512444       1.72303204      -0.00397057      -0.01263825      -0.01510525
N       -0.14390754       2.14992789      -1.20384894       0.00368655       0.00344331      -0.02985410
O       -0.51639210       3.29220832      -0.94139020      -0.00630364      -0.01598579      -0.00074291
O       -0.24815520       1.61627005      -2.30817417      -0.00696624       0.04512201       0.01979287
