12
Properties=species:S:1:pos:R:3:forces:R:3 Coordinates=T from=T ORCA-job=T run=T Energy:=T 200.9250166=T energy=-25428.236339738145 pbc="F F F"
C        0.81194243      -0.09465062       0.23505928      -0.00058725      -0.02385766      -0.04925353
H        1.54093826       1.91298675       0.25030872       0.06660818       0.03810095       0.15720032
Cl      -1.07610023       0.50017959      -2.43346306      -0.03364196       0.00211302       0.01989664
F        1.83429006      -0.39552389      -0.61893440      -0.08255641       0.06365909       0.03884499
C        0.58034317       1.39775315       0.25457333       0.06195577       0.00301571       0.00450700
H       -0.08563691      -0.63144534      -0.04425350      -0.07949320      -0.17953171      -0.17004534
H        0.05228548       1.59336067      -0.69452846      -0.02952752      -0.01521311       0.08559915
N        1.26239603      -0.65157551       1.56850817      -0.01458224      -0.05668922      -0.03659447
O        2.02837943       0.03021893       2.24797463       0.02665785       0.03030108       0.01276311
O        0.88398588      -1.79448884       1.83340134       0.02821772       0.12733387       0.08027172
C       -0.22600261       1.81981965       1.39892472      -0.02624840       0.09883880      -0.02274732
N       -0.86762097       2.18411546       2.31486924       0.08319746      -0.08807082      -0.12044228
