15
Properties=species:S:1:pos:R:3:forces:R:3 Coordinates=T from=T ORCA-job=T run=T Energy:=T 97.3028105=T energy=-83992.35475342334 pbc="F F F"
C        0.70529917      -0.02098948       0.11942002      -0.01799294       0.00464017      -0.02860925
H        1.74703907       1.81067541       0.42630863      -0.02026561       0.00262175      -0.01454011
Br      -2.51139574      -0.45087793      -1.12710967       0.01347802       0.00142181      -0.01285400
F        1.55019934      -0.44724650      -0.87616023       0.03079674       0.02252465       0.01189087
C        0.72763947       1.49781805       0.17204376      -0.01853307       0.01061094      -0.01871796
H       -0.29915380      -0.42948538      -0.05396409      -0.00917650      -0.00320772       0.01248960
N        1.26621039      -0.63768415       1.38449108      -0.02509605       0.01508398       0.00491755
O        1.72904226       0.10000675       2.25749572       0.00476140      -0.02191052      -0.02679125
O        1.24038293      -1.86479242       1.42489142       0.01043527      -0.00325732       0.02239494
C       -0.15689014       1.98526749       1.23591315       0.00966637       0.01558127       0.02776362
N       -0.84912237       2.44480979       2.06644459       0.02312746       0.00023480       0.00336294
C        0.29515249       2.07153822      -1.18783043      -0.00871249      -0.00233785       0.00222074
H        1.01348537       1.77710548      -1.95513206      -0.02334308      -0.01367809       0.01561622
H       -0.69117618       1.67881717      -1.44545240       0.01703745      -0.00529844      -0.02703539
H        0.25736740       3.16288744      -1.13871949       0.01381702      -0.02302943       0.02789145
