13
Properties=species:S:1:pos:R:3:forces:R:3 Coordinates=T from=T ORCA-job=T run=T Energy:=T 36.3485957=T energy=-91719.21679823517 pbc="F F F"
C        0.16936736      -0.10567665       0.12951879      -0.02306504       0.28030576      -0.09869123
H        1.41165513       1.56229320       0.45354887      -0.11100218       0.01210869      -0.05113586
Br      -1.69070219      -0.52200578      -0.23759010      -0.12316739      -0.23874554      -0.03339990
Cl       3.37824610       0.73972711      -1.04107120      -0.11935676       0.02551907      -0.09128624
C        0.36484594       1.40479852       0.16191018       0.00867078       0.15555340       0.14096061
H        0.79749935      -0.59973495      -0.61879345      -0.06454817       0.10461743       0.25671647
H       -0.30531491       1.80851854       0.92903446       0.10104190      -0.05727862      -0.04108873
N        0.48981817      -0.72057045       1.47347509       0.29169007      -0.28874858      -0.51960515
O        0.10311591      -0.13455396       2.47907143      -0.04512524       0.11805361       0.15378014
O        1.11414127      -1.78275358       1.45496265      -0.16620817       0.19839239       0.07544419
N        0.02572536       1.98615968      -1.13311814       0.33938349       0.12054964      -0.37518016
H        0.86492379       1.98807383      -1.74115367      -0.61341039       0.13864829       0.74703537
H       -0.34827174       2.93205435      -1.00656497       0.52509708      -0.56897555      -0.16354951
