15
Properties=species:S:1:pos:R:3:forces:R:3 Coordinates=T from=T ORCA-job=T run=T Energy:=T 106.4549833=T energy=-36290.0399837629 pbc="F F F"
C        0.83173561       0.00931509       0.04325356       0.01405405      -0.01221460       0.03267317
H        1.73611325       1.84100575       0.64747736       0.00118872       0.00889878       0.00116280
Cl      -2.36311995      -0.80335438       0.12621393       0.01184314       0.01676861      -0.03471416
Cl       2.02167313      -0.49695015      -1.17945756      -0.01137082      -0.00199641       0.01553993
C        0.78818461       1.52936934       0.19581576       0.00356506      -0.00765274       0.00777343
H       -0.15454673      -0.42690503      -0.18622008       0.00615501       0.01088384       0.00344262
N        1.27420940      -0.62780135       1.34781054       0.02948651      -0.02381038      -0.01406539
O        1.74616339       0.09765921       2.22537864       0.01080708       0.01339600       0.01865407
O        1.14933333      -1.84281543       1.42351889      -0.03122372      -0.01290897      -0.00775206
C       -0.39201025       1.97899334       1.07254721       0.00849194      -0.00354852       0.00060305
H       -1.32958881       1.60581719       0.66000747       0.00265965      -0.01442769      -0.00727271
H       -0.27831884       1.57337304       2.07750831       0.00604812       0.01846323       0.00614543
H       -0.40824206       3.07047994       1.13060528       0.00658871      -0.00356531       0.00215644
C        0.71479248       2.17716022      -1.11756394      -0.04540357       0.01622794      -0.00315971
N        0.67136144       2.77758323      -2.12651537      -0.01288990      -0.00451380      -0.02118690
