13
Properties=species:S:1:pos:R:3:forces:R:3 Coordinates=T from=T ORCA-job=T run=T Energy:=T 82.7407838=T energy=-78678.90082333052 pbc="F F F"
C        0.62957784      -0.00526018       0.02325869       2.67401385      -1.89281287      -1.14242264
H        1.69742807       1.58580658       0.10948011       0.64639572       1.47212227      -0.27790001
Br      -1.79186933      -0.18068488      -0.23869034      -1.01056250      -0.38381990       0.05337091
H        2.49398055      -0.01394648       0.19639316      -1.34734841      -0.51916774      -0.26212409
C        0.63832062       1.48289282       0.07120759       0.06000262      -0.76634138      -0.46412874
H        0.81618375      -0.38707667      -1.01387142      -0.37813153      -0.00609970       1.41444292
C        0.68323465      -0.81858993       1.18949466      -0.10291155      -1.69382343       2.44561207
N        0.68887426      -1.47194773       2.20989350      -0.03430741       1.48274086      -2.39835933
C        0.14541921       2.02026319       1.31788898      -1.17837122       2.23110600       1.13627713
N       -0.18296876       2.82822490       2.12936869       0.32415117      -1.15412304      -0.47288101
N        0.09359017       1.98073337      -1.17393024      -0.40587513      -0.04125042      -0.00819381
H        0.10758520       2.97588105      -1.10098794      -0.16408818       0.86645254      -0.27844288
H       -0.88586623       1.64655395      -1.26646544       0.91703254       0.40501681       0.25474948
