15
Properties=species:S:1:pos:R:3:forces:R:3 Coordinates=T from=T ORCA-job=T run=T Energy:=T 55.0643680=T energy=-89736.2915481376 pbc="F F F"
C        0.20678121      -0.09772079       0.09083550      -0.00729848       0.02479576       0.00300274
H        1.54816927       1.47556062       0.03283082      -0.01546987      -0.00694175       0.04415901
Cl      -1.53166027      -0.47945356      -0.25363707      -0.00287044      -0.00923131       0.03014017
Br       3.56993470      -0.09680085      -0.67078206      -0.00564363       0.02364740      -0.01832702
C        0.45427401       1.41719387       0.07140985       0.00842976       0.02948440      -0.03601723
H        0.81172667      -0.55717669      -0.69123989      -0.00883869       0.04118162      -0.06801615
C        0.53877503      -0.69984809       1.37908655      -0.06000220      -0.07582026      -0.01016373
N        0.71615054      -1.17243659       2.43996303       0.04757618      -0.00354199       0.05669573
C       -0.08688992       2.12224794       1.31204980       0.00758164       0.00499725      -0.00147278
H       -1.17478729       2.01015458       1.37534698      -0.01256580       0.02654322       0.01189340
H        0.35391088       1.72665135       2.22912316       0.00694257      -0.01810980       0.03088275
H        0.15171888       3.18780471       1.25726018      -0.03337277       0.02475624      -0.03219633
N       -0.05701691       1.94985380      -1.18933522      -0.02447131       0.04137579      -0.07036510
H        0.50324961       2.74404658      -1.47451816       0.00748517      -0.06805424       0.04695229
H       -1.01818618       2.25830312      -1.07892351       0.09251793      -0.03508233       0.01283225
