12
Properties=species:S:1:pos:R:3:forces:R:3 Coordinates=T from=T ORCA-job=T run=T Energy:=T 30.5647475=T energy=-31172.3081465425 pbc="F F F"
C        0.95733748      -0.03295523       0.09903928      -0.00206751      -0.00225098       0.00291090
H        1.52079136       1.97895682       0.60766844       0.00948057       0.00404251      -0.00770955
Cl      -2.31735867       0.08496181      -0.82343231       0.01674835       0.01116335      -0.00724147
Cl       2.45269556      -0.38341856      -0.83772187      -0.01298144       0.01333436      -0.01667239
C        0.65879236       1.46369777       0.17004976       0.00955479      -0.00549594      -0.00459139
H        0.11431896      -0.51446098      -0.40614410       0.01301660      -0.03790164      -0.00116619
H       -0.19951968       1.55016883       0.85231903       0.01099103       0.00259804      -0.02198352
C        1.12666456      -0.59506395       1.43795432      -0.01172167       0.03875880       0.01641146
N        1.28476787      -1.00014137       2.52968391      -0.00748601      -0.02239893       0.00692388
N        0.39721806       1.96953261      -1.16946519      -0.00786259      -0.00393573       0.02857470
H        0.27901266       2.97479573      -1.11320771      -0.01038939      -0.01081058      -0.00093749
H       -0.50513051       1.57600653      -1.44053357      -0.00728273       0.01289674       0.00548107
