16
Properties=species:S:1:pos:R:3:forces:R:3 Coordinates=T from=T ORCA-job=T run=T Energy:=T 18.5874970=T energy=-12209.53400254385 pbc="F F F"
C        0.30956828      -0.06090581       0.22233543       0.00273144      -0.02334034      -0.02470364
H        1.63543034       1.53998655       0.27881345      -0.01008423       0.01146572      -0.01201217
F       -1.07027251      -0.33036444       0.07387499      -0.01344489      -0.00659003      -0.00268363
F        1.93569944      -0.20986069      -1.87689693       0.00632600      -0.04118015       0.01289088
C        0.54671619       1.44544441       0.18459799      -0.00529244      -0.01408909      -0.00156706
H        0.90390906      -0.46847824      -0.64525313       0.00921690       0.02348875      -0.02617403
C        0.71796118      -0.64539454       1.50750502       0.02208888       0.01248085       0.00846569
N        1.06586045      -1.10012818       2.53499361      -0.00454853      -0.01586325       0.00416816
C       -0.15978275       2.18824945       1.31445753       0.00968276       0.01269913       0.02042115
H       -1.24372696       2.06089970       1.23424824       0.01618565      -0.01248042      -0.00546581
H        0.15524226       1.82559252       2.29768321      -0.00799828       0.00067496       0.02537758
H        0.06146328       3.25876139       1.26184603      -0.02244255       0.03609063       0.00597093
C        0.16453168       1.95754811      -1.20412675      -0.00776261       0.01627396      -0.01369070
H        0.74695572       1.35746755      -1.91365664      -0.01990201      -0.01082734       0.00703378
H       -0.90907914       1.83162448      -1.37699868      -0.01068357      -0.01566149      -0.00233597
H        0.40029347       3.02323773      -1.30061337       0.03592746       0.02685812       0.00430484
