12
Properties=species:S:1:pos:R:3:forces:R:3 Coordinates=T from=T ORCA-job=T run=T Energy:=T 40.6067955=T energy=-15630.803798188332 pbc="F F F"
C        0.91610344      -0.11985500       0.12966945      -0.07131630      -0.08384942       0.04210770
H        1.81462407       1.80113265       0.46356413      -0.06866471       0.12638211       0.09923129
F       -1.41699514       0.51247078      -0.56287935      -0.04023461       0.01961273      -0.09950446
F        2.10808104      -0.40251305      -0.58445186      -0.13616289      -0.02318763       0.12514304
C        0.83513146       1.39948565       0.17716750       0.14263022      -0.18213868      -0.05773452
H        0.01140022      -0.41713216      -0.43190373      -0.06740822       0.03214082       0.10188375
H        0.52648359       1.74575559      -0.80208918       0.01876013      -0.08238153       0.01539376
C        1.01549970      -0.79746298       1.43539815       0.10852229       0.20805811      -0.15365059
N        1.14175572      -1.37724184       2.44992109       0.04939638      -0.10736424      -0.05872517
N       -0.15999190       1.98396966       1.11616301       0.43793111      -0.25008610       0.27270349
O       -0.47673366       3.13949449       0.87119465      -0.30319101       0.38651199      -0.14488580
O       -0.45595856       1.37815620       2.14055615      -0.07026239      -0.04369816      -0.14196248
