14
Properties=species:S:1:pos:R:3:forces:R:3 Coordinates=T from=T ORCA-job=T run=T Energy:=T 60.8979366=T energy=-10949.965336734465 pbc="F F F"
C        0.48612585       0.00420406      -0.07832551       0.03449914      -0.11105844       0.01961610
H        1.59813296       1.81970765       0.01810715      -0.03935802      -0.04122077       0.02347483
F       -0.87969258      -0.34834795       0.01758707       0.06318379      -0.08017430      -0.01116033
H        1.96667123      -1.53348003       0.51694255      -0.23798858       0.25942585       0.14798038
C        0.53815446       1.53508034      -0.01098695      -0.02139622      -0.00599743       0.07128882
H        0.81007176      -0.33928724      -1.07215692       0.01821503      -0.03591977      -0.03410642
C        1.34562307      -0.68849763       1.03305923       0.06287494       0.03147940       0.37566658
N        1.36707888      -0.38631083       2.24910503       0.08694213      -0.20510035      -0.60514144
C       -0.17122042       2.04930268       1.25470902      -0.01018084       0.09243425      -0.03850495
H       -1.25279843       1.98748668       1.11196147       0.03932538      -0.05305059       0.10547440
H        0.15967000       1.40089414       2.07847351      -0.03385436       0.06588366      -0.14731973
H        0.10073983       3.09182881       1.43968104      -0.02973999       0.08744266       0.01793533
C       -0.06285392       2.12657719      -1.21808517      -0.03453491       0.00151871       0.01777107
N       -0.59108269       2.58396212      -2.16561152       0.10201252      -0.00566287       0.05702535
