14
Properties=species:S:1:pos:R:3:forces:R:3 Coordinates=T from=T ORCA-job=T run=T Energy:=T 51.9286321=T energy=-90738.47761164332 pbc="F F F"
C        0.23400215      -0.11293310       0.08501765       0.01464271      -0.00326155       0.00215904
H        1.61742186       1.43678778       0.07231373       0.01268592      -0.02375634       0.00295973
Br      -1.67861043      -0.49725058      -0.21570783       0.00917739      -0.01123419      -0.00192707
Cl       3.33099452      -0.14459964      -0.65452119      -0.03357412       0.01251685      -0.00505051
C        0.51763010       1.39885096       0.07822243       0.00392688       0.01298439       0.01942021
H        0.79492299      -0.58846655      -0.72064805       0.01314519       0.00335092      -0.00212618
C        0.60622821      -0.71307409       1.36140783      -0.00094678      -0.00893414       0.04170977
N        0.83691453      -1.16915247       2.42089143      -0.01873018       0.01737557      -0.03836569
C       -0.06415534       2.15028847       1.27835200       0.00628465       0.00725346      -0.00186929
H       -1.15333700       2.06126813       1.31209555       0.03046778       0.00144958      -0.00844099
H        0.35550365       1.74953299       2.20428096      -0.01309280       0.00803795      -0.02232469
H        0.19699508       3.20918690       1.21047888      -0.00648562      -0.01577512       0.00759172
C        0.05610773       1.99701168      -1.17648817      -0.00497888      -0.02374642       0.04061016
N       -0.33262804       2.52961953      -2.14909522      -0.01252216       0.02373903      -0.03434620
