15
Properties=species:S:1:pos:R:3:forces:R:3 Coordinates=T from=T ORCA-job=T run=T Energy:=T 161.8771913=T energy=-36290.020818746256 pbc="F F F"
C        0.89682720      -0.01565656       0.08719875      -0.00688120      -0.07985961      -0.08456820
H        1.79652768       1.94609942       0.27038082      -0.00872744      -0.01546969      -0.01173172
Cl      -2.35191149      -0.37599654      -0.20899204      -0.02357825      -0.06171144       0.00816931
Cl       2.25740334      -0.58262442      -0.94415337       0.04757609       0.01851781      -0.02345650
C        0.80266494       1.50681574       0.12830178       0.01754079       0.00526924       0.03752812
H       -0.05470597      -0.41691133      -0.30466188       0.03843217      -0.00565961       0.02965605
C        1.14563356      -0.53683639       1.43182655      -0.01223383      -0.00494178      -0.07657030
N        1.39694301      -0.96385617       2.49822545      -0.02763800       0.04360897       0.00119453
C       -0.16784369       1.96769112       1.20389747      -0.00465817       0.06362813       0.09237760
H       -1.09924605       1.40370075       1.12047665      -0.04217617       0.07501285      -0.07930861
H        0.26650026       1.80254490       2.18994960       0.06548212      -0.05249368       0.04434305
H       -0.34558114       3.03334412       1.08582593      -0.08608625       0.09765754      -0.01830645
N        0.36288130       2.05984048      -1.21792822       0.08305442      -0.08902036      -0.08388263
O        0.19932297       3.27992238      -1.25918244       0.03188914      -0.04924695       0.04178177
O        0.26102405       1.29933250      -2.17458504      -0.07199543       0.05470857       0.12277398
