12
Properties=species:S:1:pos:R:3:forces:R:3 Coordinates=T from=T ORCA-job=T run=T Energy:=T 58.9314433=T energy=-21374.79242492372 pbc="F F F"
C        0.27182443      -0.05840481       0.03021371      -0.03609225      -0.00910809       0.00450850
H        1.61938648       1.43736412       0.06536105      -0.00567783      -0.00041945      -0.01402651
Cl      -1.53195094      -0.39221304      -0.14139322       0.03306112      -0.01033696      -0.01047345
F        2.72600625      -0.07726426      -0.17156272       0.00811604       0.02138903       0.00437312
C        0.52271800       1.43957230       0.03976495      -0.00671400      -0.01283446      -0.00414526
H        0.80165767      -0.49472255      -0.80934981      -0.03246797      -0.00615501       0.00638548
H        0.08664502       1.87538902       0.95209353       0.02213021       0.01602781      -0.00321329
C        0.71961080      -0.69304656       1.26729391       0.01442530       0.00211862       0.00101059
N        0.90241299      -1.18656068       2.31885636      -0.01217961       0.00264757      -0.00904540
N        0.03258647       2.04673714      -1.19896266       0.01451216      -0.00067124       0.02694178
H        0.57616394       2.87801100      -1.39103163      -0.00815659      -0.00473316       0.00583643
H       -0.93605111       2.32157831      -1.09193348       0.00904343       0.00207533      -0.00815199
