14
Properties=species:S:1:pos:R:3:forces:R:3 Coordinates=T from=T ORCA-job=T run=T Energy:=T 68.4595158=T energy=-20179.993947736206 pbc="F F F"
C        0.57646098       0.12103045      -0.08171758      -0.00518265      -0.03270194      -0.01095980
H        1.66892524       1.88089747      -0.07103244       0.00424550      -0.00119618      -0.00589692
Cl      -1.16348784      -0.48486054      -0.03470121       0.01488097       0.00699154      -0.02038033
H        1.37621639      -1.64518379       0.96250782      -0.01886443       0.03827276      -0.01934378
C        0.59959661       1.64253488      -0.04951453       0.00484109      -0.02491575       0.02028770
H        0.93722809      -0.23833385      -1.05325897       0.00589467       0.00270045      -0.02257258
C        1.39401128      -0.51173425       1.09782844      -0.00521419       0.00543386       0.00321134
N        1.97418101       0.12698189       1.99799548       0.00095901      -0.00397532       0.02176751
N        0.09623241       2.21491793       1.19648099       0.00943959      -0.00539417       0.01961134
H        0.73864066       1.79660064       1.88480045       0.01583139       0.00421256       0.01562201
H       -0.81144541       1.78969334       1.37543453      -0.00486952       0.03123398      -0.00950464
N       -0.01377677       2.22216281      -1.24512138      -0.00867621       0.00105896       0.02572398
H       -0.05721614       3.22064181      -1.05834824      -0.01502942       0.00787865      -0.02956884
H       -0.97828650       1.90473119      -1.28100336       0.00174420      -0.02959941       0.01200302
