14
Properties=species:S:1:pos:R:3:forces:R:3 Coordinates=T from=T ORCA-job=T run=T Energy:=T 141.2193377=T energy=-33240.70862665482 pbc="F F F"
C        0.74720050      -0.04596198       0.16057158      -0.00909099      -0.02213349       0.00809745
H        1.82852726       1.80943827       0.27986140       0.00120818      -0.00861549      -0.00232027
Cl      -2.26919169      -0.46463008      -1.03256598      -0.02108108      -0.03295383      -0.00685447
Cl       1.89605567      -0.69384066      -1.06068501      -0.00369117       0.02617715       0.01036037
C        0.78654047       1.49652673       0.13111766      -0.00149684      -0.01031048      -0.00035625
H       -0.26384998      -0.39358560      -0.13552207       0.01690878       0.03582859      -0.01076028
C        1.13458887      -0.56097060       1.46969844      -0.00260623      -0.02844041       0.03684184
N        1.45231554      -0.95815608       2.53046657       0.00067465       0.00561743      -0.02815219
C        0.02078332       2.02533525       1.26771242      -0.02256650       0.01810195       0.00941418
N       -0.55900298       2.50396431       2.17146350       0.02512489      -0.00540687      -0.00851024
C        0.24451998       2.06317669      -1.18718196       0.01119385       0.01302074      -0.00753586
H        0.90464656       1.78393601      -2.00910516       0.01022979      -0.02090530      -0.01209939
H       -0.75045380       1.65566025      -1.37760041       0.00810749       0.00632554       0.02047483
H        0.20351030       3.15302750      -1.12750099      -0.01291483       0.02369448      -0.00859971
