12
Properties=species:S:1:pos:R:3:forces:R:3 Coordinates=T from=T ORCA-job=T run=T Energy:=T 52.8158021=T energy=-21376.513551533033 pbc="F F F"
C        0.13209884      -0.11399621       0.16644224       0.00939885       0.02231183      -0.01402506
H        1.20914602       1.63627154       0.66827565      -0.00269756      -0.02527468       0.02033504
F       -1.15733742      -0.51833182      -0.17472222       0.00472597      -0.00064518       0.00607743
Cl       3.03644547       0.65483494      -1.61535188      -0.01078305       0.00162878       0.00243964
C        0.22791053       1.40192595       0.23355155       0.00044983       0.01856236      -0.01527164
H        0.83449467      -0.48062794      -0.58604484       0.00141350      -0.01547729      -0.00769811
H       -0.56002326       1.75900261       0.90735060       0.00537237      -0.00105195       0.00311511
C        0.44620839      -0.71728057       1.47746640       0.01873027       0.03781518      -0.01795067
N        0.67117873      -1.17578473       2.53482632      -0.01308534      -0.01463828       0.01066201
N        0.03123896       1.95555034      -1.10189012      -0.01204101      -0.00491486      -0.01489036
H        0.88173989       1.72938324      -1.62037790       0.00237798      -0.01300551       0.02067020
H        0.00201918       2.96609265      -1.02342580      -0.00386180      -0.00531040       0.00653642
