13
Properties=species:S:1:pos:R:3:forces:R:3 Coordinates=T from=T ORCA-job=T run=T Energy:=T 72.5237743=T energy=-27932.43052628954 pbc="F F F"
C        0.00374603      -0.07270952       0.09054688      -0.03808858      -0.01255742      -0.00715068
H        2.17097862       0.98833479      -0.08379305       0.01603510       0.00703348       0.00335303
Cl      -1.81857591      -0.48863621      -0.01697280       0.00729056      -0.00263372      -0.01490208
F        2.99083129       0.57576500      -0.30418285      -0.02936723       0.01021286       0.00289550
C        0.30564012       1.36209280       0.09070074       0.04205883      -0.00220617      -0.00639273
H        0.41807697      -0.53191875      -0.80630638      -0.02912773       0.00027675      -0.00931250
C        0.49780083      -0.74746287       1.28623007       0.01936281      -0.01001933       0.02745203
N        0.89202853      -1.31379313       2.23774235       0.01480466      -0.00356847       0.01781545
C        0.00227365       2.14581758       1.23467875      -0.01494185      -0.02274155       0.00481844
N       -0.20975612       2.75320092       2.22392217       0.00437516       0.01386050       0.00841978
N        0.11792676       2.00778449      -1.16938186      -0.01312202       0.01245166      -0.01130702
O        0.05246122       3.24483180      -1.19712710       0.01185287       0.01524935       0.00001257
O        0.08235801       1.29592310      -2.18815694       0.00886744      -0.00535794      -0.01570179
