15
Properties=species:S:1:pos:R:3:forces:R:3 Coordinates=T from=T ORCA-job=T run=T Energy:=T 35.4148755=T energy=-13998.801211785936 pbc="F F F"
C        0.21182181      -0.04940022       0.14494859      -0.09502478       0.02397307      -0.01573136
H        1.67858220       1.41965150       0.22369608      -0.05992346       0.10946005       0.08172988
F       -1.09243600      -0.24048231      -0.32195264      -0.09341441      -0.04005599      -0.09949828
H        2.32308044      -0.35478931      -1.49043151       0.00369417      -0.01177235      -0.01346525
C        0.58587971       1.42511420       0.11433691       0.01865769      -0.18337214      -0.07531207
H        0.98832738      -0.48711518      -0.57508854      -0.02072818       0.06610324      -0.03573118
C        0.30027917      -0.67863272       1.45948713       0.08341217       0.21355442      -0.15038558
N        0.38206087      -1.21984762       2.49728882       0.00572232      -0.21877541       0.23588349
N        0.01949405       2.16770298       1.28706744      -0.04919666       0.26363409       0.11736339
O       -0.97617524       2.88712196       1.12970571       0.21428344      -0.27665998      -0.07709416
O        0.59385909       2.00657803       2.36827377      -0.00123701       0.04950929      -0.02323669
C        0.18416966       2.05551485      -1.20332835      -0.00890978      -0.04829230       0.09341291
H        0.71128771       1.49469724      -1.98579030      -0.06295005       0.09564924       0.11706584
H       -0.89555234       1.99436326      -1.33237782       0.03768354       0.00998019      -0.07879018
H        0.48257147       3.10749333      -1.21841530       0.02793102      -0.05293542      -0.07621075
