14
Properties=species:S:1:pos:R:3:forces:R:3 Coordinates=T from=T ORCA-job=T run=T Energy:=T 96.2206131=T energy=-13648.192901110564 pbc="F F F"
C        0.22450488      -0.08206295       0.20045168       0.01499481       0.03134821       0.01178308
H        1.62874198       1.45058948       0.24054354      -0.01514008       0.01362593       0.00872415
F       -1.14003387      -0.29799136      -0.04425244      -0.00359523       0.00521256       0.01585522
F        2.12240067      -0.07367780      -1.60046258      -0.01716058       0.00026665      -0.02650114
C        0.53660625       1.41601811       0.17383061      -0.00937589       0.01700246       0.00477122
H        0.88710085      -0.46318684      -0.62807153      -0.00065553      -0.01430629       0.00567325
C        0.54782067      -0.69340016       1.49512073      -0.01888671       0.00508967       0.01822345
N        0.81552562      -1.19612261       2.52394469       0.00900140      -0.00503884      -0.01813227
C       -0.07676935       2.15801198       1.28221382       0.00128876      -0.03239333      -0.00300999
N       -0.56955087       2.77660084       2.15282626      -0.00451606      -0.00757609      -0.01752277
C        0.15014892       1.98869874      -1.19576490       0.01332043      -0.00007541      -0.00430248
H        0.72443195       1.38120031      -1.90085590       0.01941227      -0.01237834      -0.01196302
H       -0.92576992       1.90894202      -1.36469715       0.01055548      -0.01317386       0.00696071
H        0.44516223       3.03881025      -1.26902681       0.00075693       0.01239669       0.00944058
