12
Properties=species:S:1:pos:R:3:forces:R:3 Coordinates=T from=T ORCA-job=T run=T Energy:=T 41.0468802=T energy=-150219.53722483484 pbc="F F F"
C        0.91872253      -0.06684459      -0.02141844       0.01137531      -0.02587193       0.00164227
H        1.24659507       1.97562813       0.66700796      -0.00350436       0.02874673       0.01714141
Br      -2.41455553      -0.17439887       0.27611684      -0.00323276      -0.01706756       0.01922810
Br       2.68554483      -0.28839899      -0.86872786      -0.02049711      -0.00554539       0.00197267
C        0.54162764       1.39738037       0.07302207       0.00570742      -0.00541018       0.01810096
H        0.18414131      -0.60507131      -0.62073919      -0.00337915       0.01167664      -0.02565732
H       -0.48053848       1.42627573       0.47466675      -0.00334322       0.00642776      -0.00549738
C        1.00494636      -0.62895633       1.32134831      -0.00606905       0.01079192       0.02845628
N        1.14929868      -1.03719115       2.41444941       0.00532841      -0.01848990      -0.02090876
N        0.47490894       2.04944537      -1.26366894      -0.01166573       0.01264729       0.01745021
O        0.67104598       3.26553210      -1.28050150       0.00746794       0.00394838      -0.03347856
O        0.18117272       1.35939948      -2.23426548       0.02181230      -0.00185377      -0.01844988
