18
Properties=species:S:1:pos:R:3:forces:R:3 Coordinates=T from=T ORCA-job=T run=T Energy:=T 14.8389874=T energy=-78066.2511235979 pbc="F F F"
C        0.77496602      -0.02025439       0.02788217       0.03564712      -0.09925204      -0.04107134
H        1.92439515       1.73771598       0.22335394       0.05009318       0.05024632      -0.02314663
Br      -2.87298992      -0.48084968       0.34671970      -0.00714263       0.03394636       0.02059285
F        1.77087054      -0.46360049      -0.88348273       0.01413215      -0.00667847       0.00519113
C        0.86147392       1.50022582       0.07402121       0.02693969      -0.07995164       0.00745095
H       -0.18962816      -0.33701594      -0.37516791      -0.02005031       0.08156382      -0.02232686
C        0.99264632      -0.72689211       1.34380619      -0.02166454      -0.05133564       0.02618693
H        1.93282206      -0.43079409       1.82177151      -0.00086789       0.03766211      -0.01910621
H        0.14666730      -0.51203105       1.99676293       0.01056544      -0.02120432       0.06446190
H        1.00185788      -1.80611405       1.17184308       0.05287328       0.01296648      -0.01079151
C        0.04746904       2.07134318       1.23640097      -0.00442302      -0.02385306      -0.00604859
H       -0.94906055       1.62276297       1.25157768      -0.06238018       0.02443716      -0.02258858
H        0.53645025       1.87308829       2.19462575      -0.04270774      -0.01134042       0.01106907
H       -0.05461624       3.15611208       1.13134053      -0.00382568       0.02063119       0.00868966
C        0.39361309       2.07369429      -1.26372021       0.00108297      -0.01377774       0.02353020
H        0.98036793       1.66354262      -2.09068365      -0.02473044       0.01329739       0.02853451
H       -0.65699638       1.80775658      -1.41421752      -0.00960917       0.03822725      -0.01961160
H        0.48524153       3.16535996      -1.27495359       0.00606770      -0.00558476      -0.03101587
