16
Properties=species:S:1:pos:R:3:forces:R:3 Coordinates=T from=T ORCA-job=T run=T Energy:=T 68.9190660=T energy=-79504.86950905548 pbc="F F F"
C        0.05588454      -0.10023750       0.07400123      -0.05440113       0.05981032      -0.01371696
H        1.59646306       1.33418093      -0.06346863       0.01153024      -0.01095234      -0.05897062
F       -1.35133104      -0.13429919      -0.00752119      -0.09088105      -0.01462728       0.01443200
Br       3.82519465       0.00636675      -0.18377046      -0.01545708       0.01394011       0.03196632
C        0.49993746       1.36468389       0.02910842       0.00242602       0.01207840       0.00616452
H        0.43585638      -0.60269305      -0.81993089       0.00555698       0.01738591       0.02088436
C        0.47750784      -0.84866009       1.31495292       0.00857335       0.06135424      -0.09012326
H        1.56652697      -0.87509141       1.35792461       0.07839905       0.00860413      -0.00335140
H        0.07477917      -0.37240854       2.20935147      -0.05100228      -0.02463339       0.06264168
H        0.08730238      -1.86636713       1.25373084       0.02100061      -0.05416392       0.04466569
C        0.10193164       2.18115267       1.26651295       0.02229442      -0.02252463       0.01131181
H       -0.96979722       2.09749194       1.47030542       0.03447260       0.00224879      -0.05732136
H        0.65689884       1.82951646       2.13795781       0.01882008       0.00531041      -0.01206848
H        0.35262585       3.23461376       1.11459092      -0.03743682      -0.03635015       0.01427999
C       -0.06278448       1.98492310      -1.17728246       0.00855627      -0.04823891      -0.01073237
N       -0.54735549       2.47777733      -2.12837308       0.03754879       0.03075831       0.03993809
