16
Properties=species:S:1:pos:R:3:forces:R:3 Coordinates=T from=T ORCA-job=T run=T Energy:=T 43.9732459=T energy=-35288.27832452313 pbc="F F F"
C        0.05720014      -0.06596079       0.08860395      -0.01374454       0.01805324      -0.01054159
H        1.62271446       1.32214659       0.15452058       0.00417034      -0.01897021       0.03192225
Cl      -1.73348607      -0.14193271      -0.18927581      -0.01727648       0.01294034       0.01867884
Cl       3.48465813      -0.04672970      -0.47235055       0.03939159       0.01508175       0.00237425
C        0.53313659       1.38093963       0.04925949       0.00004992       0.00945703      -0.01757811
H        0.52222945      -0.51703405      -0.78763650      -0.01811398       0.02957328      -0.02751492
C        0.43373215      -0.84697411       1.32768438      -0.01220408      -0.00269284      -0.00527193
H        1.51936065      -0.78721451       1.42385688       0.02188026      -0.03305285       0.02377662
H       -0.04365413      -0.45699438       2.22609539      -0.02728585       0.01136347       0.00223734
H        0.14138138      -1.89036634       1.19626143       0.01850276      -0.03561583      -0.00345362
N        0.01491136       2.12634944       1.28529057      -0.02057221       0.04411476      -0.06464262
O       -0.92438318       2.91324813       1.13403408       0.04626195      -0.03662803       0.04912860
O        0.56594879       1.89426630       2.36091337      -0.01324032       0.02574466       0.01431009
N        0.18720769       2.04078612      -1.16058167      -0.00759616       0.01028679      -0.01289819
H        0.77893966       2.84959283      -1.29160461       0.02215960      -0.00361401      -0.01350065
H       -0.78029707       2.33555756      -1.14529097      -0.02238282      -0.04604157       0.01297363
