12
Properties=species:S:1:pos:R:3:forces:R:3 Coordinates=T from=T ORCA-job=T run=T Energy:=T 0.8548848=T energy=-143227.36986183003 pbc="F F F"
C        0.98284295      -0.07089455       0.00490241      -0.01405406      -0.00372656      -0.00595214
H        1.66529940       1.83599632       0.76256102      -0.00623694       0.00915418      -0.02130117
Br      -2.59526617       0.07775964       0.03110160      -0.00240005       0.01166881       0.01194673
Br       2.72745901      -0.61581308      -0.78340073       0.03065124       0.00682275       0.01321208
C        0.91353608       1.44005130       0.07203038       0.00505929      -0.02863634       0.00317041
H        0.23558490      -0.44554926      -0.69195701      -0.01977593      -0.00603993      -0.00419316
H       -0.09292071       1.69218155       0.41789915       0.00532466       0.00818733      -0.02133213
H        1.06291963       1.88432065      -0.91434592      -0.00273969       0.02584029       0.02258302
C        0.81122424      -0.73792897       1.35316005       0.00770462       0.01558228      -0.02335655
H        1.56092061      -0.37936171       2.06603642      -0.00520210      -0.02154066      -0.00538127
H       -0.19571661      -0.48849115       1.69937371       0.00406053      -0.02439379      -0.00184832
H        0.88825669      -1.82381076       1.26669892      -0.00239159       0.00708163       0.03245248
