17
Properties=species:S:1:pos:R:3:forces:R:3 Coordinates=T from=T ORCA-job=T run=T Energy:=T 37.6184069=T energy=-11207.089870420828 pbc="F F F"
C       -0.01472938      -0.12092780       0.02472669       0.06476136       0.02104700      -0.03777638
H        1.56425527       1.24361045      -0.13692173       0.00386014      -0.03559500      -0.00059273
F       -1.43488375      -0.11860772       0.18943491      -0.06965540      -0.00202412      -0.04753532
F        2.93347140       0.77521147       1.19060148      -0.01596973      -0.01784415      -0.00632360
C        0.46855444       1.30909560      -0.07907811       0.00479252       0.06373204      -0.02221188
H        0.14748258      -0.59956873      -0.94456643       0.02781455      -0.04399870      -0.07974787
C        0.62595870      -0.90137738       1.14409387      -0.02272500      -0.00716045       0.02717762
H        1.70082968      -0.63861542       1.16511788      -0.05517024       0.02815866       0.00811020
H        0.20140040      -0.57415126       2.09640851      -0.03458344      -0.00660174       0.04467226
H        0.42208264      -1.97096112       1.02640251       0.06534356      -0.02710234       0.01503944
C        0.18739416       2.08049210       1.20756727       0.03649766       0.00543857       0.04589744
H       -0.85635702       1.96286713       1.52508058       0.05767440       0.05444392       0.04184191
H        0.89201495       1.71169236       1.95311876       0.03940750       0.01986072       0.03213158
H        0.39991025       3.14621137       1.05651973      -0.04044992      -0.02416004      -0.01046520
N       -0.10154440       1.90836253      -1.30051725      -0.03678412       0.00505155      -0.02771378
H        0.33635380       2.81442433      -1.43479627      -0.00559034      -0.00996937       0.02527639
H       -1.08628371       2.08855210      -1.12609240      -0.01922350      -0.02327656      -0.00778010
