16
Properties=species:S:1:pos:R:3:forces:R:3 Coordinates=T from=T ORCA-job=T run=T Energy:=T 53.1820149=T energy=-18740.848310934656 pbc="F F F"
C        0.48763187      -0.03749031       0.01083990      -0.00176346       0.02647792       0.03282201
H        1.08093290       1.63272256      -1.16407025       0.00161321      -0.02686234       0.00291736
Cl      -0.35341017      -0.77550684      -1.42464478      -0.00167367       0.01172789      -0.00650981
H        3.47187301       0.20070186       0.61339443       0.01775592       0.02151581       0.01277337
C        0.58186353       1.48164082      -0.19251162       0.00099692      -0.00038538      -0.00466833
H        1.52256685      -0.40712684       0.00454304      -0.02662541      -0.02350266      -0.02859175
C       -0.22563328      -0.45613461       1.27739458       0.01572436      -0.00716656       0.01028052
H        0.31291850      -0.01848190       2.11908676      -0.00954809       0.00877957       0.00673553
H       -1.26427688      -0.10928912       1.29218147       0.02727146      -0.02306159      -0.01195986
H       -0.22007208      -1.54428584       1.37555376      -0.02155775      -0.00533962      -0.00509671
N        1.34497236       1.97736994       0.93793037      -0.01557172       0.00663617      -0.04025236
H        1.57661311       2.94512710       0.73312142       0.03132412       0.01425751       0.02776444
H        2.23805168       1.43380363       0.94747468      -0.03377142       0.00692182       0.00208399
N       -0.67974563       2.22006024      -0.25565775       0.02212957      -0.02101360      -0.00592419
H       -1.12327267       2.13651929       0.65359473       0.01850593       0.00269776      -0.00856341
H       -1.28217309       1.78400002      -0.94669074      -0.02480998       0.00831730       0.01618922
