14
Properties=species:S:1:pos:R:3:forces:R:3 Coordinates=T from=T ORCA-job=T run=T Energy:=T 21.7588879=T energy=-77434.52671963436 pbc="F F F"
C        1.02698862       0.02006229       0.06041531       0.01061248      -0.01523622      -0.00189005
H        1.51493953       2.09945313       0.43288226       0.01082879      -0.00575981      -0.00166133
F       -1.56547086       0.04024727      -0.69493464       0.00009860      -0.00720503       0.01496245
Br       2.93321020      -0.21433200      -0.47412150       0.00622775      -0.01463900       0.00757931
C        0.66571987       1.49937960       0.08022459      -0.00371014      -0.00885759       0.00849829
H        0.42236187      -0.44703987      -0.71411211       0.01508040       0.01002950      -0.01607558
H       -0.15329994       1.58794238       0.80779072      -0.01705649      -0.01594369       0.01246221
C        0.77398695      -0.68312084       1.37700223       0.00415741      -0.00215334       0.00868698
H        1.14743088      -1.70995527       1.36310847      -0.01726803      -0.01167429      -0.00824317
H        1.23028375      -0.16090050       2.22437667       0.00454910       0.03192540      -0.00458536
H       -0.31488033      -0.70043138       1.47648011      -0.00009291       0.02446332      -0.01717967
N        0.24819489       1.89604945      -1.26252748      -0.00501129       0.00959369      -0.00946463
H       -0.03901174       2.86987562      -1.22945674      -0.01300628       0.01258029       0.00700016
H       -0.60855338       1.31344011      -1.35784796       0.00459065      -0.00712322      -0.00008961
