17
Properties=species:S:1:pos:R:3:forces:R:3 Coordinates=T from=T ORCA-job=T run=T Energy:=T 33.8221703=T energy=-79857.82072202326 pbc="F F F"
C        0.77221937      -0.06306218      -0.06058750      -0.14778654       0.00443036       0.03559450
H        1.95806417       1.73348446       0.15558208       0.15577854       0.02172009       0.01382371
Br      -2.86622116      -0.47287837       0.44789669       0.02667772       0.01377176       0.05639142
H        1.52598140      -0.45025903      -0.74282182       0.13033545       0.11994458      -0.19874016
C        0.90267164       1.45775970       0.06470555       0.00013459       0.01575537       0.05302198
H       -0.21501002      -0.28749608      -0.47426333      -0.03081339      -0.01326673       0.04982228
C        0.89391388      -0.73928844       1.30341320      -0.00226268       0.03335634      -0.00219473
H        1.67341323      -0.26879679       1.90891230       0.06348713      -0.06140691       0.13731819
H       -0.06516291      -0.69428201       1.81669970      -0.02280919       0.10219819       0.11387591
H        1.14693327      -1.79385147       1.19640981       0.02303754      -0.11989337      -0.10176757
C        0.09835544       2.04902902       1.20967729      -0.05745807      -0.01857883      -0.03208007
H       -0.89759315       1.60236109       1.20809243      -0.11628520       0.06310973       0.05502543
H        0.59617330       1.82620311       2.15886539      -0.07313821      -0.07911572      -0.09673925
H        0.01905348       3.13163903       1.11917731       0.00107644       0.00927570      -0.04120132
N        0.51534354       2.09745770      -1.25754770      -0.07006905      -0.08920202      -0.01906892
O       -0.17053546       3.11857646      -1.26088570       0.06467679      -0.04133337       0.00511775
O        0.96058979       1.55762378      -2.27097568       0.05541811       0.03923484      -0.02819914
