14
Properties=species:S:1:pos:R:3:forces:R:3 Coordinates=T from=T ORCA-job=T run=T Energy:=T 61.8682969=T energy=-78245.35858815425 pbc="F F F"
C        0.13489929       0.05641558       0.16119807       0.03899776      -0.00209843       0.06091815
H        3.04783618       0.84578664      -0.44637672      -0.02699255       0.01432025       0.01148190
Br      -2.49960695      -1.54639653      -0.29787716       0.01955673      -0.00286503      -0.00061359
H        3.77148448       0.97588308      -0.49635929       0.05099529      -0.01000361      -0.01060651
C        0.13913920       1.41325405       0.12078549      -0.08892974      -0.01759260       0.04295754
H        0.02902979      -0.47105546      -0.77870420       0.04387113      -0.08594071      -0.01186026
C        0.38168981      -0.73860297       1.40283366      -0.05680864       0.00388968       0.00796643
H        1.46565566      -0.86499474       1.54745758      -0.09870477      -0.02335551      -0.00900099
H       -0.02550228      -0.24777818       2.28916723       0.03360721       0.09099477      -0.01751486
H       -0.10452145      -1.70711257       1.31040805       0.05009611      -0.03447520      -0.06926923
C        0.19773695       2.19996102       1.32218697       0.01778140       0.00453838      -0.01419473
N        0.24135493       2.82315323       2.32084415       0.03596961      -0.00438476      -0.06981779
C        0.03745575       2.12396215      -1.12254026      -0.01208038       0.12621832       0.01147872
N       -0.00039154       2.73309464      -2.12978360      -0.00735924      -0.05924558       0.06807519
