17
Properties=species:S:1:pos:R:3:forces:R:3 Coordinates=T from=T ORCA-job=T run=T Energy:=T 36.2209310=T energy=-78502.39091524185 pbc="F F F"
C        0.89780612      -0.04837224       0.04676734       0.00393947       0.00951949      -0.00824224
H        1.86645949       1.82423104       0.16909690       0.01378885      -0.01316283       0.00334846
Br      -2.88790709       0.21725849      -0.41543010       0.01636225       0.00509781      -0.01480772
F        2.02697956      -0.41521071      -0.71340742       0.04498155      -0.01457680      -0.01790105
C        0.82781206       1.47582838       0.07289240      -0.00420685       0.01729135      -0.01131655
H        0.02133893      -0.43636532      -0.47613141      -0.03035207       0.00772500       0.00845311
C        1.02528089      -0.71315463       1.39855530      -0.01015972      -0.00477162       0.00876168
H        1.84731401      -0.28338121       1.97977064       0.01106261      -0.01052134      -0.00458159
H        0.08941381      -0.60437692       1.94748975       0.00136567      -0.00940753       0.05131932
H        1.21801003      -1.77842702       1.25257142       0.01003551      -0.01255590       0.01365973
C        0.00409408       2.01894228       1.24724362       0.00354386       0.00199974       0.00150953
H       -1.01154179       1.61629844       1.20273006       0.01046992       0.03967609      -0.01130342
H        0.45338379       1.78335415       2.21820094      -0.00047285      -0.01009764      -0.01340182
H       -0.05011930       3.11064607       1.16355957      -0.02874587      -0.01865714       0.00984034
N        0.32702248       1.90780136      -1.23614437      -0.01268877       0.00502144      -0.02767661
H        0.28793668       2.92244610      -1.25665410      -0.00703904      -0.01095312       0.03275520
H       -0.63658408       1.57692171      -1.30116053      -0.02188452       0.01837301      -0.02041635
