16
Properties=species:S:1:pos:R:3:forces:R:3 Coordinates=T from=T ORCA-job=T run=T Energy:=T 78.7383285=T energy=-19310.4443347971 pbc="F F F"
C        0.61165831      -0.11833781       0.10989928       0.01497792       0.09810325      -0.02466934
H        1.91839473       1.59028051       0.07937058      -0.02013530       0.01682925      -0.00190523
Cl      -2.74988037      -0.23653427      -1.25811398      -0.00436583       0.00053969      -0.01538178
H        1.19444348      -0.53244369      -0.72034451       0.06195019      -0.01869531      -0.01856238
C        0.83359168       1.40209034       0.07735340      -0.03939294       0.11011547      -0.09520185
H       -0.43650618      -0.33234936      -0.12383176      -0.02733768       0.02366643       0.09703871
C        1.05403412      -0.72523185       1.43525844      -0.00308730       0.01117050       0.01926542
H        2.02276820      -0.32025583       1.74982046       0.05723854      -0.07682083       0.00233997
H        0.33183620      -0.49148129       2.22024553      -0.00998988      -0.03004905       0.03382198
H        1.14266900      -1.81073265       1.36163035      -0.03088833      -0.06244970       0.03650710
C        0.32430194       2.07178956       1.28315777      -0.00652053       0.02427742       0.04816805
N       -0.03855299       2.66413492       2.23204523       0.00384073      -0.06613399       0.00329644
C        0.19742791       2.04100692      -1.16403500      -0.00591142       0.03517566      -0.09281716
H        0.65911153       1.62540872      -2.06420909      -0.00321199      -0.04685999       0.00493623
H       -0.86820048       1.79560036      -1.19529261       0.05617599       0.02253679      -0.02556452
H        0.34592294       3.12628541      -1.17414410      -0.04334218      -0.04140560       0.02872838
