14
Properties=species:S:1:pos:R:3:forces:R:3 Coordinates=T from=T ORCA-job=T run=T Energy:=T 23.3781605=T energy=-11496.674795724504 pbc="F F F"
C        0.56646713      -0.20409260       0.26281421       0.01333223       0.00848070       0.00337321
H        1.59681879       1.77627757       0.26365596       0.03312953      -0.01019737       0.02536947
F       -0.34803726       1.70771000      -2.10552414      -0.01107190       0.00290345       0.02903773
H        1.10931029      -0.48984471      -0.64741397      -0.02163147       0.01239008      -0.01889398
C        0.62488940       1.29794093       0.37237805       0.00934575       0.00517776      -0.00023878
H       -0.47277077      -0.51805743       0.11622005       0.01905308       0.02779438       0.02915778
H       -0.08224282       1.67824757      -1.16614404       0.02023523      -0.02986104      -0.01909955
C        1.15206642      -0.95494068       1.46837250       0.00047793      -0.00977858      -0.01013977
H        2.21228131      -0.71110924       1.59765384      -0.01752747       0.02477398      -0.00127109
H        0.61335830      -0.66133077       2.37161259       0.00616127      -0.00460371      -0.01758484
H        1.06778896      -2.04369285       1.35285195      -0.01116411      -0.00673942       0.00194321
N       -0.06219564       1.85854460       1.44937073      -0.03707274       0.00768242      -0.02290700
O        0.24387053       3.00659823       1.85741901      -0.00689104      -0.02045383      -0.02476631
O       -1.02470463       1.22264937       1.95911325       0.00362371      -0.00756883       0.02601992
