16
Properties=species:S:1:pos:R:3:forces:R:3 Coordinates=T from=T ORCA-job=T run=T Energy:=T 91.4171450=T energy=-22006.682224140743 pbc="F F F"
C        0.71645439      -0.06374648       0.04653171       0.01808935      -0.01174940       0.02598202
H        1.89497749       1.68256033       0.15212903      -0.00415261       0.05906087       0.00691569
Cl      -2.69842923      -0.28395590      -0.34694944       0.01876023       0.02225921      -0.04352938
F        1.74375727      -0.48866960      -0.82870471      -0.02500150      -0.00204430      -0.02445173
C        0.82080998       1.46955632       0.05826202       0.01556876      -0.03877861       0.02911847
H       -0.24221117      -0.36520308      -0.37936388       0.00163933      -0.00857242      -0.01213854
C        0.92808417      -0.72211212       1.38960992      -0.00703319       0.00012338       0.00008000
H        1.83083983      -0.35252685       1.88931837      -0.01603954      -0.00866188      -0.04103854
H        0.05774269      -0.53790633       2.02123805      -0.00004507       0.02654044       0.00908156
H        1.01579220      -1.80158944       1.24446880       0.01977778       0.01989307      -0.00690056
C        0.18296541       2.05997199       1.23831258       0.04160876       0.00765356       0.01098361
N       -0.24344753       2.57784301       2.20277547      -0.03726653       0.03018052       0.01995870
C        0.27560208       2.07474812      -1.24118714       0.00368497      -0.04321276       0.00159703
H        0.85880873       1.68367838      -2.07636041      -0.00615189      -0.03804601      -0.04436704
H       -0.76715305       1.77479446      -1.36248390      -0.02922985       0.00962413       0.02325173
H        0.35158674       3.16591719      -1.24323647       0.00579101      -0.02426980       0.04545697
