17
Properties=species:S:1:pos:R:3:forces:R:3 Coordinates=T from=T ORCA-job=T run=T Energy:=T 40.4236076=T energy=-18304.538698331493 pbc="F F F"
C        0.60066851      -0.15108136      -0.00666149       0.01171423       0.02062496      -0.00432277
H        1.38519905       1.46553151      -1.11726377      -0.02224270      -0.01300657      -0.00953980
Cl       0.05867462      -0.98948044      -1.52716294      -0.00995436      -0.00016663      -0.01911860
H        3.58876058       0.39712740       0.78447882       0.01480349       0.01038384       0.01337095
C        0.70719257       1.35509170      -0.25342022       0.00160373       0.02225100       0.01212353
H        1.62843789      -0.48841159       0.17215226       0.00581037      -0.02129776      -0.00305532
C       -0.31313908      -0.54580160       1.13354473       0.01249935       0.00452959       0.00434507
H        0.03501483      -0.02501914       2.02633457      -0.01129159       0.01093902       0.02270736
H       -1.35169723      -0.26594541       0.93597804      -0.00016142      -0.02884877      -0.00177969
H       -0.26836769      -1.62493459       1.30037885      -0.00882465      -0.00466886       0.00288949
N        1.28584634       1.90668204       0.97278192       0.00367569       0.00843421       0.02194766
H        1.48539747       2.88935679       0.79865150       0.00297478       0.01301493       0.00866057
H        2.21817544       1.44051386       1.06572790       0.00389740      -0.02881946      -0.00991584
C       -0.61515968       2.04280316      -0.57029445       0.00147982      -0.00115819      -0.01014925
H       -1.09780452       1.60269970      -1.44665629      -0.02212850       0.01360379      -0.00903307
H       -1.29205673       1.98222729       0.28620405       0.01941207       0.00094545      -0.00217496
H       -0.43662239       3.10505067      -0.77384348      -0.00326771      -0.00676055      -0.01695534
