16
Properties=species:S:1:pos:R:3:forces:R:3 Coordinates=T from=T ORCA-job=T run=T Energy:=T 55.2320113=T energy=-79503.3701411426 pbc="F F F"
C        0.05952063      -0.14956561       0.05397807      -0.00238754       0.00920677       0.01201047
H        1.63996032       1.18312988       0.00606318       0.00188264      -0.01199692       0.02157436
Br      -1.93809301      -0.36365251       0.01708648       0.00576207      -0.01262239       0.01435251
F        2.96814397       0.65315898       0.49914581       0.01020206       0.01025411       0.02098855
C        0.48103826       1.30886252      -0.01124123       0.01809469       0.00374826       0.00691134
H        0.37036526      -0.64045414      -0.87058693      -0.01448922      -0.00420126       0.01231672
C        0.63689205      -0.87584939       1.25491225      -0.01195995       0.02238228      -0.02815069
H        1.70776992      -0.61541087       1.23459344      -0.03882336      -0.01559275       0.00512246
H        0.18211917      -0.52660715       2.18624920       0.00484404      -0.01733788      -0.03452016
H        0.47139511      -1.95451428       1.17208636       0.01545840       0.04572032       0.00040506
C        0.13142268       2.13715426       1.22463154       0.00538402       0.00549342       0.00942345
H       -0.93429544       2.09997086       1.47381105      -0.01037740      -0.02789052      -0.02119061
H        0.72207087       1.76979115       2.06465489       0.03298448      -0.01038680      -0.00082948
H        0.41207378       3.18039436       1.05995370       0.00772638       0.01507461      -0.00307830
C        0.03529716       1.94882256      -1.23667825      -0.02545827      -0.00993265      -0.02165566
N       -0.29622078       2.49045936      -2.22895958       0.00115694      -0.00191860       0.00631999
