16
Properties=species:S:1:pos:R:3:forces:R:3 Coordinates=T from=T ORCA-job=T run=T Energy:=T 59.7130293=T energy=-15695.237585043224 pbc="F F F"
C        1.02706000      -0.04466474      -0.00050597       0.02096726      -0.01126434      -0.04789840
H        1.74418759       1.92048501       0.35489536       0.01347605       0.01598819       0.04522538
F       -1.46741082      -0.02724025       0.35696813      -0.00631076       0.03670084      -0.00278401
F        2.38029432      -0.14722624      -0.44045377      -0.03320032       0.00607120       0.00610560
C        0.77444094       1.47324766       0.11183439      -0.01578528      -0.02820496       0.00658263
H        0.42619910      -0.41231456      -0.83041262       0.01052272      -0.03642222      -0.03704298
N        0.86349595      -0.81067722       1.19205518       0.00656446       0.03521230      -0.03201183
H        0.99714304      -1.77800948       0.90260966      -0.00789252       0.03907623       0.03831840
H       -0.16321161      -0.68560808       1.29475869      -0.01743562      -0.03055892       0.01308728
N       -0.10592954       1.93653260       1.24444369      -0.01634320      -0.00709077       0.02000635
O       -0.98377844       2.75970561       0.99616824       0.01585323      -0.00645914      -0.03172148
O        0.20394397       1.58137000       2.37759359       0.04408760       0.01453975       0.02306501
C        0.22189480       1.97782677      -1.20604595      -0.02218749      -0.04366503      -0.00040984
H        0.82892541       1.55993780      -2.01453873       0.03695968       0.07552270      -0.01535103
H       -0.79323856       1.58593083      -1.26656218      -0.02866275      -0.00704985      -0.00415132
H        0.21734386       3.06783430      -1.27581770      -0.00061305      -0.05239599       0.01898024
