15
Properties=species:S:1:pos:R:3:forces:R:3 Coordinates=T from=T ORCA-job=T run=T Energy:=T 50.3166287=T energy=-79941.15229964937 pbc="F F F"
C        0.80019805       0.03867181      -0.00283416       0.01399942       0.06469496      -0.03965213
H        1.92602478       1.79526755       0.47778716      -0.00202135      -0.05068278       0.03127699
Br      -2.28336985      -1.50474912       0.63145248       0.01866510      -0.04321105       0.07060511
F        1.71447143      -0.36405655      -0.99597152       0.06704961      -0.02219130      -0.00303757
C        0.91398876       1.56118516       0.12104709      -0.04368818       0.07369698       0.04971396
H       -0.20042329      -0.24804163      -0.33136089      -0.00809927       0.03565304       0.03202181
N        1.09441322      -0.58692714       1.25036867      -0.05015888      -0.02327710      -0.06421955
H        2.02481553      -0.98215441       1.21097399       0.04303381       0.03368602       0.02663052
H        0.41121637      -1.32239097       1.40457455      -0.08398109      -0.01721906      -0.03236456
C       -0.13127125       2.06906573       1.12824484      -0.00162244       0.01216388       0.01136215
H       -1.10321439       1.61241265       0.92690784       0.00968884      -0.01748183      -0.03233615
H        0.17598207       1.76446298       2.12790970      -0.02327410      -0.06637605      -0.00182362
H       -0.23412961       3.15650668       1.09980468       0.07506816       0.01651115      -0.05638602
C        0.77378306       2.22126878      -1.18284514       0.04219819       0.03773313       0.04744437
N        0.70156491       2.81592840      -2.19365927      -0.05685783      -0.03370000      -0.03923532
