13
Properties=species:S:1:pos:R:3:forces:R:3 Coordinates=T from=T ORCA-job=T run=T Energy:=T 24.6647232=T energy=-11932.932208141981 pbc="F F F"
C        0.82791918       0.13991237      -0.15037908      -0.01067930       0.02085826      -0.00590786
H       -0.01565223       0.75172396       1.66597578      -0.00110725       0.01789011      -0.01023631
F       -0.42675575      -0.86875203       2.28650722       0.00607951       0.01119052       0.01572376
H        1.41417897       0.52535230      -0.99744792      -0.01844548       0.01697021      -0.02776372
C        0.62633860       1.23000968       0.89633840       0.00703348      -0.01305324       0.02912264
H       -0.17141973      -0.14315067      -0.50660431       0.01308208      -0.00801693      -0.00531452
H        1.57731948       1.56960038       1.30548074      -0.02048923      -0.02455372      -0.03299231
N        1.54538521      -0.94371587       0.52338218      -0.00701443      -0.02677209       0.01026611
H        1.53584682      -1.74795986      -0.09676006       0.02111372      -0.00151381      -0.01660295
H        0.90048356      -1.16313885       1.31614174      -0.02447667       0.03059732       0.02177698
N       -0.02676914       2.42134258       0.30776670       0.03778189      -0.01191626       0.01390932
O       -1.13127641       2.27761511      -0.22305369       0.02102955      -0.02530365      -0.02060965
O        0.56407145       3.50721091       0.36566232      -0.02390786       0.01362328       0.02862852
