13
Properties=species:S:1:pos:R:3:forces:R:3 Coordinates=T from=T ORCA-job=T run=T Energy:=T 75.2905897=T energy=-23880.80995649903 pbc="F F F"
C        0.01746336      -0.11592708       0.02588157      -0.11450225      -0.06221798       0.03073279
H        2.14124398       1.05545041       0.14690009      -0.61442976       0.29651596      -0.12209294
Cl      -1.84943669      -0.41470060       0.04945160      -0.01742977      -0.17541283       0.09193719
F        2.98698295       0.66944956       0.32709269       0.72585104      -0.26460988       0.08956979
C        0.34803694       1.32082292       0.02999680       0.15709199      -0.03855257      -0.07153455
H        0.26023928      -0.53529039      -0.95903377       0.04906609       0.01280368       0.08667060
N        0.55923953      -0.82036868       1.16226414      -0.06803017       0.02755426       0.00274682
H        1.55759704      -0.63742397       1.19742979      -0.11704835       0.00479785      -0.01096318
H        0.39988267      -1.81630832       1.06485483      -0.00805754       0.04858124      -0.02531636
C        0.09566830       2.08602868       1.20533064       0.04501569       0.26968352       0.30005774
N       -0.03389578       2.77302856       2.16180758      -0.01377304      -0.27363028      -0.27955760
C        0.09448568       1.95825009      -1.21540851      -0.12705038       0.10794529      -0.20120365
N       -0.11085725       2.41137881      -2.28831745       0.10329645       0.04654174       0.10895335
