17
Properties=species:S:1:pos:R:3:forces:R:3 Coordinates=T from=T ORCA-job=T run=T Energy:=T 38.1919692=T energy=-75802.79284635941 pbc="F F F"
C        0.21572095      -0.20206335       0.03737425       1.26046271      -0.51923007      -0.46624180
H        1.55446228       1.45752949       0.00239945      -0.15395698      -0.62445593      -0.50278590
Br      -2.17769627      -0.25673732       0.27666145      -1.39758750       0.07985699       0.05837736
H        2.97891673      -0.29249951       1.21465417      -0.10525389       0.81549492      -0.03876957
C        0.45609007       1.30307855      -0.03356244      -0.29864561       0.19207789      -0.10091533
H        0.09514268      -0.66651028      -0.91421686      -0.35652630      -0.02303528      -1.21199339
N        0.81448963      -0.92912414       0.93692135      -0.73708048       1.04905167       0.80887121
H        2.15387471      -0.20652036       1.15364460       2.08141807      -0.66057634       0.53545753
H        1.01980896      -1.87764298       0.64399476      -0.51166173      -0.18825942      -0.20187462
C        0.06187138       2.11270466       1.18970830       0.13698238       0.08496327       0.49489688
H       -0.94136857       2.55688263       1.25928418       0.04623764      -0.64291370      -0.32639276
H        0.27732462       1.48993496       2.05279254      -0.22083041       0.02050963       0.41347792
H        0.77041490       2.93135153       1.19486748       0.17752538       0.62037886       0.35613199
C       -0.08519382       1.98986133      -1.28297589      -0.15393681       0.41743871      -0.52381726
H        0.21930165       1.62065497      -2.27011967       0.15907287      -0.51334210       0.27004870
H       -1.16262625       2.06899318      -1.29100012      -0.51329101      -0.60378507       0.19925109
H        0.20022588       3.03500649      -1.29753750       0.58707162       0.49582597       0.23627795
