12
Properties=species:S:1:pos:R:3:forces:R:3 Coordinates=T from=T ORCA-job=T run=T Energy:=T 49.9281993=T energy=-21375.868585978358 pbc="F F F"
C        0.07890543      -0.10989727       0.04018706       0.03003098       0.03335512      -0.00380433
H        1.72145386       1.15227252      -0.05079538       0.00564214      -0.02084385       0.01220167
Cl      -1.76353060      -0.09214428       0.15618041      -0.03247942       0.01274793       0.00679972
F        2.99408087       0.07050311       0.40481575       0.01690848      -0.00384503       0.01883001
C        0.61434978       1.31028736      -0.06478871       0.01204373       0.02463768       0.01001571
H        0.24913697      -0.64113595      -0.90392079       0.01446269       0.01794715       0.00363894
H        0.32925362       1.84961865       0.84193242      -0.00236235       0.00617391       0.02964434
N        0.64961961      -0.70186107       1.20235947       0.01109756       0.00417891      -0.03950203
H        1.68521617      -0.49863318       1.08037751      -0.01634051      -0.01955725      -0.01089186
H        0.50587356      -1.70515439       1.16391973       0.00048712      -0.00507630      -0.00395855
C        0.17655235       2.05479251      -1.23538809      -0.03542983      -0.01081915      -0.01119893
N       -0.14551160       2.68888198      -2.17181938      -0.00406058      -0.03889912      -0.01177469
