14
Properties=species:S:1:pos:R:3:forces:R:3 Coordinates=T from=T ORCA-job=T run=T Energy:=T 106.5343995=T energy=-24234.240512651217 pbc="F F F"
C        0.75491702       0.07182046      -0.13167200       0.02156809       0.01656027      -0.01050506
H        1.89884350       1.66221636       0.78046326      -0.04579442      -0.00078496      -0.00900643
Cl      -2.03401093      -1.97334838       1.02002714       0.02758881      -0.00498204      -0.01850279
H        1.49938182      -0.20846554      -0.88443095      -0.01372381      -0.03423970      -0.05736648
C        1.00291354       1.56317642       0.16466950      -0.02890904      -0.00526681       0.00614000
H       -0.24582893      -0.03942068      -0.56678537       0.02513941       0.01558714       0.00023222
N        0.91584223      -0.68471446       1.09773598      -0.03166493       0.01375116      -0.01877719
H        1.46732440      -1.51057756       0.89970462      -0.00288951       0.03051944       0.04415821
H       -0.01112290      -1.04247635       1.35657558       0.01604334       0.00786866      -0.01911683
N       -0.13257755       2.11052662       0.99491800      -0.04606923       0.08200754      -0.03658862
O       -1.22490555       2.18581047       0.43761521       0.11198124       0.00535425       0.11450842
O        0.12898380       2.43808476       2.15001990      -0.04120041      -0.03210179      -0.04398792
C        1.11189572       2.38709665      -1.04331301       0.03499441      -0.05662284       0.00928896
N        1.26616384       3.02349125      -2.01991786      -0.02706396      -0.03765033       0.03952349
