15
Properties=species:S:1:pos:R:3:forces:R:3 Coordinates=T from=T ORCA-job=T run=T Energy:=T 88.5831074=T energy=-9949.648387517884 pbc="F F F"
C        1.24921037       0.07245941       0.21514967       0.00910209      -0.02360481       0.01046620
H        1.85459729       2.03326763      -0.45092043       0.01707355       0.00644359      -0.00463552
F       -1.29321654      -0.87742816      -1.09539298      -0.01239321      -0.02525883       0.01536343
H        2.22366794      -0.01692195       0.71634142       0.00512364      -0.00082756       0.00886018
C        0.96349200       1.57078961      -0.00072416      -0.00374303      -0.02345752       0.00814971
H        1.32699765      -0.38098289      -0.78488116      -0.00314514      -0.00110326      -0.01347854
N        0.19299173      -0.52188288       1.02047600      -0.00888900       0.02686514      -0.02036691
H        0.54369326      -1.39027836       1.41060224       0.00573673      -0.00146472      -0.01747334
H       -0.54525733      -0.77004325       0.31163998      -0.00769230       0.01425222      -0.00911785
C        0.79560424       2.22847380       1.30232096       0.00726422       0.00946917      -0.00542299
N        0.72016063       2.81883480       2.31571026      -0.00961936       0.02304180       0.03088531
C       -0.25003723       1.80620377      -0.92011542       0.00463384      -0.00317047       0.00609465
H        0.08775736       1.72144611      -1.95751103       0.00118760       0.01162681      -0.01611363
H       -0.98999847       1.00633217      -0.79642926       0.00152163      -0.02336404       0.00486885
H       -0.67463291       2.80347018      -0.77178610      -0.00616127       0.01055247       0.00192045
