16
Properties=species:S:1:pos:R:3:forces:R:3 Coordinates=T from=T ORCA-job=T run=T Energy:=T 40.0278047=T energy=-80293.86496251858 pbc="F F F"
C        0.94715537      -0.11088527      -0.12342333      -0.04405521      -0.07914861      -0.04631931
H        1.89162356       1.79575042       0.33256165       0.07346344      -0.02364261       0.08588516
Br      -2.48569109      -0.67371480      -0.04445337      -0.02066105      -0.01896567      -0.00217645
H        1.87253140      -0.28905460      -0.69144794       0.00211367      -0.02654818       0.02287616
C        0.89934309       1.43028987       0.05384076      -0.04029914       0.02088399       0.02270640
H        0.09986669      -0.39261787      -0.74936456      -0.00680126       0.01424024      -0.03054678
N        0.89499711      -0.96912004       1.04091667       0.08900326       0.00629069       0.03955163
H        1.37167488      -0.54148582       1.82287133      -0.01346423       0.01848592       0.04595460
H       -0.08636633      -1.06981006       1.28524116      -0.02636940      -0.01588663      -0.03326920
N        0.05636859       1.87049672       1.22037148       0.02375505       0.05522359      -0.09177942
O       -0.95551054       2.53412554       1.01130008       0.02209280      -0.05141169       0.09750803
O        0.48621025       1.57367289       2.33982448      -0.00945413       0.02144727      -0.00065946
C        0.41388155       2.08488588      -1.22069530      -0.00272932       0.03694288      -0.02485324
H        1.05407422       1.75918545      -2.04642406      -0.03128507      -0.01297968      -0.01570036
H       -0.61331392       1.76944117      -1.40777502       0.00252507       0.00236779      -0.04822249
H        0.45169498       3.17336049      -1.15655404      -0.01783453       0.05270069      -0.02095526
