13
Properties=species:S:1:pos:R:3:forces:R:3 Coordinates=T from=T ORCA-job=T run=T Energy:=T 14.2640532=T energy=-77872.38146940817 pbc="F F F"
C        0.32461961      -0.17594166       0.11108528       0.01301143      -0.00899358      -0.00638658
H        1.55872456       1.53117363       0.30912693       0.02004389      -0.01310369      -0.02994383
Br      -3.10131669       0.97749833      -0.42078293      -0.00711341      -0.01132633       0.00629593
F        3.63788957      -0.08385565       1.34161939       0.01805155       0.01583698       0.01358528
C        0.51571275       1.30839830       0.06805378       0.00380401      -0.01414924       0.02821056
H       -0.65690864      -0.53146624      -0.21395530      -0.00053769       0.02414505      -0.01744153
H       -0.12915205       1.73666312       0.84989898      -0.03011929       0.01473920       0.00909192
N        1.25463403      -0.95873244       0.52725144      -0.00336335       0.00553109       0.00301097
H        2.79914774      -0.42881582       1.06123353      -0.02747244      -0.00694145      -0.02665330
H        0.95318839      -1.93119076       0.49850676      -0.01395361       0.00735530       0.00823231
N        0.18056679       1.78077113      -1.28182190       0.01341854      -0.00272484      -0.00975090
H        0.37048675       2.77606971      -1.32056980       0.00855588       0.02085792       0.01022301
H       -0.83233292       1.68279839      -1.36959614       0.00567449      -0.03122644       0.01152616
