16
Properties=species:S:1:pos:R:3:forces:R:3 Coordinates=T from=T ORCA-job=T run=T Energy:=T 47.6470277=T energy=-15695.940470171749 pbc="F F F"
C       -0.03583382      -0.14859086       0.03286511      -0.00124277       0.01969146       0.03605674
H        1.61090019       1.16939425      -0.07837052       0.02271704      -0.01623053      -0.00735879
F       -1.44258970      -0.07824641       0.27614795      -0.00195760       0.03536176      -0.06556201
F        2.85497194       0.47014973       1.04053890       0.00737589      -0.01800767       0.02558616
C        0.51202977       1.27361453      -0.02324998      -0.00286067       0.02615861       0.02836976
H        0.01908423      -0.60371433      -0.96205879       0.00530043      -0.03128979       0.00569432
N        0.61165551      -0.85254023       1.07122547       0.01788674      -0.01730477      -0.02470754
H        1.58592938      -0.45267551       1.18256385      -0.00407643      -0.00064420       0.00588538
H        0.65323450      -1.83876064       0.85072600       0.01023057       0.01995045      -0.00234225
C        0.18143453       2.07894720       1.21304520      -0.00920541       0.02585564       0.03380088
H       -0.89403265       2.14094796       1.38169642      -0.00371676      -0.04522263       0.01791716
H        0.67725316       1.57228623       2.03991333      -0.01451495       0.00893684      -0.00848154
H        0.58527028       3.08983471       1.13938693       0.03739220      -0.01032937      -0.05758661
N        0.02783763       1.93168549      -1.27607191      -0.03901358       0.00791847      -0.02101703
O       -0.55440302       3.01722143      -1.20530625      -0.01163360      -0.00016436       0.00917467
O        0.26933807       1.35918645      -2.34320170      -0.01268111      -0.00467991       0.02457069
