15
Properties=species:S:1:pos:R:3:forces:R:3 Coordinates=T from=T ORCA-job=T run=T Energy:=T 59.1546371=T energy=-13435.786679097426 pbc="F F F"
C        1.24442767       0.11185512       0.24757124       0.00002692      -0.01341769       0.00929317
H        1.82428241       2.15257109      -0.19627902      -0.00819593      -0.00136255       0.00942727
F       -1.44497660      -0.49178188      -1.13473046       0.00460160       0.00036546      -0.01254295
H        2.16172137       0.07090671       0.84261138       0.03270390      -0.02363254      -0.01727716
C        0.90708306       1.58204044       0.01772503      -0.00700271       0.00282448      -0.02353564
H        1.44231831      -0.31413039      -0.74852940      -0.02851392       0.00740161      -0.01362598
N        0.15386812      -0.53295836       0.96848713      -0.01329865      -0.00674022       0.02845704
H        0.45429459      -1.47344165       1.20157743       0.00170016       0.00278535       0.02780637
H       -0.61876040      -0.62584829       0.27445758       0.02256565       0.00272174      -0.01758325
N        0.55560228       2.14652369       1.42031592       0.02514229       0.02686849      -0.00228483
O       -0.56103598       2.61850683       1.61400703       0.01808184      -0.02504057       0.01831809
O        1.46640472       2.14019438       2.24960878      -0.03893544       0.00962409       0.02235945
N       -0.09607876       1.76958205      -0.95449512      -0.02584986       0.00771614      -0.01466687
H       -0.63085171       2.60586384      -0.76596806       0.01198673       0.02899205      -0.01281985
H       -0.72887908       0.93503641      -1.04349946       0.00498742      -0.01910584      -0.00132486
