14
Properties=species:S:1:pos:R:3:forces:R:3 Coordinates=T from=T ORCA-job=T run=T Energy:=T 97.2880891=T energy=-10383.717199138684 pbc="F F F"
C        0.59338644      -0.03914074      -0.23451524      -0.00469020      -0.01158280      -0.01516946
H        1.22926028       1.76342785      -1.20401240      -0.00786579       0.00938386      -0.01159204
F       -0.13070439      -0.60969258      -1.28893417       0.00550766      -0.02978260      -0.01654626
H        2.49942572       0.09966827       2.11028312       0.01329611       0.01337798       0.00077237
C        0.55742428       1.49132039      -0.37993058       0.00757967       0.01592028       0.01561349
H        1.63359909      -0.36697152      -0.36174791       0.00002193      -0.01114209       0.03861668
N        0.02272595      -0.43253332       1.02108534       0.00727943      -0.00441312      -0.01968218
H        0.82027655      -0.30904674       1.68466488      -0.00210561      -0.00590469      -0.01338674
H       -0.12803468      -1.43694518       0.96484075      -0.03097553      -0.00109822      -0.00533802
N        0.98756602       2.19413932       0.82808350       0.02383758       0.03047038       0.02862567
H        1.79030304       1.66926179       1.21297672       0.03026098      -0.01042982      -0.01141662
H        0.26538959       2.02596504       1.52310918      -0.02986671       0.01604713      -0.00371204
C       -0.79020571       1.93911446      -0.77233843      -0.00192039      -0.01084274       0.00208444
N       -1.85129218       2.32459296      -1.09622477      -0.01035912      -0.00000354       0.01113072
