11
Properties=species:S:1:pos:R:3:forces:R:3 Coordinates=T from=T ORCA-job=T run=T Energy:=T 14.7722682=T energy=-32719.32447229121 pbc="F F F"
C        0.90767290      -0.07431206      -0.08452204       0.01467155       0.00294483       0.01712691
H        1.67604650       1.85055427      -0.64803251      -0.00951245       0.03144405       0.00394077
Cl      -2.19267400       0.20339215       1.01067649       0.00494858       0.00987904       0.00732874
Cl       2.34282041      -0.57216138       0.86417542      -0.02441283      -0.00553862       0.00397333
C        0.79267752       1.41894129      -0.17834973       0.00074667       0.00273765       0.01332593
H        0.01210045      -0.51156130       0.36127313       0.01896073      -0.02480805      -0.01685222
H        0.65169732       1.80931837       0.82870905      -0.01290546      -0.00432923       0.00726752
H       -0.11358888       1.65392808      -0.73837120       0.02644867       0.00811617      -0.01531734
N        1.08698381      -0.69729966      -1.44817715      -0.01859153       0.03725171      -0.02683646
O        1.71374476      -0.05909676      -2.29484005      -0.01797478      -0.03094774      -0.00145309
O        0.60780919      -1.81572301      -1.61497140       0.01762085      -0.02674983       0.00749590
