13
Properties=species:S:1:pos:R:3:forces:R:3 Coordinates=T from=T ORCA-job=T run=T Energy:=T 38.8609048=T energy=-91719.16681461628 pbc="F F F"
C        0.30131980      -0.06486928      -0.22741074      -0.02422746       0.03113079       0.07430320
H        1.66862412       1.46539099      -0.61980878       0.01488353       0.04170166       0.02663712
Br      -1.48315855      -0.34515956       0.47995979       0.00104393      -0.02232058      -0.06246122
Cl       2.86214762      -0.20528838       1.78450331       0.00222681       0.00082228       0.00516018
C        0.64315732       1.40622521      -0.25787428       0.00397527       0.02516953      -0.01412114
H        1.00631353      -0.57683068       0.44323247       0.04066766      -0.01312371      -0.04945074
H        0.65895671       1.73153154       0.78675440       0.06284972      -0.00394477      -0.03171400
N        0.43327009      -0.69602048      -1.59559891      -0.02989217       0.01807638       0.02643664
O        1.27667640      -0.19395889      -2.33720052      -0.02799680      -0.00563084       0.04064774
O       -0.22137130      -1.70030378      -1.85637990      -0.02086822       0.01484306      -0.01198189
N       -0.26738035       2.16464291      -1.12141841       0.02207796      -0.00834004      -0.02975964
H        0.24244699       2.89696350      -1.59847058       0.02733590      -0.06312663       0.03921485
H       -0.97656260       2.60851688      -0.55455782      -0.07207615      -0.01525713      -0.01291109
