15
Properties=species:S:1:pos:R:3:forces:R:3 Coordinates=T from=T ORCA-job=T run=T Energy:=T 59.9335893=T energy=-150719.7681384558 pbc="F F F"
C        0.15918281      -0.02174897      -0.22987555       0.02076388       0.01633840       0.01285699
H        1.52543912       1.51656158      -0.55361472      -0.02884956       0.03644789      -0.02116609
Br      -1.69627536      -0.35444062       0.18956024      -0.05551050      -0.04867990       0.02292301
Br       2.92011218      -0.07957935       1.99136602      -0.00834541      -0.02537193      -0.00967752
C        0.48093724       1.46722113      -0.22417828       0.00814236       0.02824255       0.00995985
H        0.77675024      -0.53527752       0.51483804       0.02396089      -0.01643959       0.02568011
N        0.49595050      -0.67618115      -1.55709169      -0.06024889       0.10107198      -0.04211635
O        1.26556113      -0.07707146      -2.30518916       0.02036535      -0.02354012       0.09556184
O        0.03525786      -1.79322299      -1.77080052       0.01736632      -0.00872773      -0.01521103
N        0.29666297       1.95879193       1.14123404      -0.00526222       0.00734630      -0.04248424
H        0.66174583       2.90701730       1.16183890      -0.00467585      -0.00004398      -0.01932841
H        0.92038122       1.41661047       1.74687672      -0.00903313      -0.00017001      -0.06590244
N       -0.35054799       2.17771747      -1.18615804       0.04174337      -0.01791736       0.02920802
H        0.13867061       3.00547095      -1.50440059      -0.02245111      -0.02298950       0.01272326
H       -1.19613826       2.47017116      -0.70574525       0.06203450      -0.02556700       0.00697303
