14
Properties=species:S:1:pos:R:3:forces:R:3 Coordinates=T from=T ORCA-job=T run=T Energy:=T 23.2188034=T energy=-33785.49154601561 pbc="F F F"
C        0.40217697      -0.11186922      -0.18409426       0.00025991      -0.01883650      -0.02038215
H        1.79740647       1.38275117      -0.63165471       0.03127357      -0.00754421       0.00070298
Cl      -1.18724517      -0.37990969       0.55107686       0.03782138       0.02599333       0.01011111
Cl       2.82044679      -0.10481239       2.02262410      -0.00323759      -0.01239128       0.00246679
C        0.75685713       1.35613099      -0.30476779       0.01462861      -0.00096510       0.00901753
H        1.16302842      -0.60420522       0.43377987      -0.00563669       0.00700097       0.00840058
H        0.75977548       1.75043192       0.71199224      -0.03175845      -0.00320811       0.03208147
N        0.44718650      -0.73185138      -1.56536000      -0.01459665      -0.03696521      -0.01373538
O        1.55557297      -0.68766605      -2.09623615       0.02446108       0.00712121      -0.00057507
O       -0.56344584      -1.19624105      -2.08505154      -0.01973586       0.01000749       0.00230073
C       -0.14480505       2.15256997      -1.23829792      -0.01376265       0.02005453      -0.00980352
H       -0.09037055       1.78140669      -2.26526404       0.01554733      -0.01499610      -0.02475302
H       -1.18877683       2.11893876      -0.92226439      -0.03514332      -0.02062255       0.02427574
H        0.16964270       3.19850550      -1.24890228      -0.00012067       0.04535153      -0.02010777
