13
Properties=species:S:1:pos:R:3:forces:R:3 Coordinates=T from=T ORCA-job=T run=T Energy:=T 30.1780009=T energy=-11930.215363189178 pbc="F F F"
C        0.06427931      -0.03527178      -0.17699681      -0.01359881       0.01168012       0.02394972
H        1.67623120       1.30385521      -0.33799620       0.00712302      -0.02224110      -0.02515464
F       -1.31364562      -0.06923379      -0.17105126      -0.00192377      -0.00084061       0.01018958
H        2.56055100       0.41973791       1.92711866      -0.01267278      -0.00386484       0.00798452
C        0.60411985       1.36591305      -0.09982656       0.00125530      -0.00116138      -0.01145808
H        0.45801196      -0.66340224       0.61998544       0.00775264      -0.00527711      -0.00302228
H        0.09397474       1.97368441      -0.85157322      -0.00680845       0.00989084      -0.01964362
N        0.43369238      -0.71100028      -1.48092737      -0.02526482       0.03466491      -0.01900953
O        0.45777335      -0.01649865      -2.49835586       0.00700664      -0.00083996      -0.02314292
O        0.61391513      -1.92882828      -1.45559858       0.03493035      -0.00291663       0.03125504
N        0.35508535       1.84290001       1.25500620      -0.02570021      -0.00968522       0.03617274
H        0.52325933       2.84440710       1.26570236       0.01847789      -0.00911359      -0.00559093
H        1.13728202       1.40484734       1.79319318       0.00942299      -0.00029543      -0.00252959
