14
Properties=species:S:1:pos:R:3:forces:R:3 Coordinates=T from=T ORCA-job=T run=T Energy:=T 153.7071478=T energy=-21185.10578713875 pbc="F F F"
C        0.33813176      -0.09956531       0.04286731       0.05412541       0.03941415      -0.03392286
H        1.04068839       1.62368192      -1.05888489      -0.03393166      -0.03647727      -0.03715009
F       -0.45160578       0.29667644      -2.04766343       0.02772456      -0.06978566       0.00406580
F        0.90815523      -0.35190892       1.29430592      -0.03388846      -0.02290276       0.00267058
C        0.35767732       1.40480865      -0.24679637       0.01625452       0.04706126       0.05616058
H       -0.64557908      -0.55152282       0.00329108       0.11936986       0.06604324      -0.00820902
N        1.22939565      -0.86528634      -0.88917726      -0.04679805       0.00970726      -0.05715289
O        2.27424354      -0.33565885      -1.25481330      -0.01070435       0.06052568       0.04164383
O        0.91473743      -2.03365094      -1.08484402      -0.00032664      -0.07776416       0.01565008
N        0.91698161       2.15413544       0.96932212       0.03704280      -0.07152826       0.03793985
O        2.04852926       2.62423271       0.84630670      -0.00385139      -0.02399526       0.00469405
O        0.21905077       2.23006320       1.97684493      -0.02942445       0.02048334      -0.05442939
C       -0.97791857       1.92775675      -0.50498666      -0.01689895      -0.06610459       0.02267798
N       -2.02522753       2.46054806      -0.52829213      -0.07869318       0.12532304       0.00536151
