17
Properties=species:S:1:pos:R:3:forces:R:3 Coordinates=T from=T ORCA-job=T run=T Energy:=T 52.1956432=T energy=-37791.800332351806 pbc="F F F"
C        0.00730053      -0.07690767      -0.08347739       0.04440683      -0.04600615      -0.03977666
H        1.46195902       1.39880393      -0.27904873       0.03189331      -0.00452446       0.03320789
Cl      -1.76961337      -0.28895260      -0.27784771       0.00484741       0.04293922      -0.02838243
Cl       3.32212285       0.33650496       0.77890192      -0.00785972       0.02633084      -0.02482538
C        0.38593012       1.41251172      -0.09406358       0.00335893      -0.06675002       0.00796626
N        0.64613586      -0.81668652      -1.28253392      -0.03896578      -0.00245475       0.00168076
O        1.20042761      -0.14146164      -2.13510968      -0.01514412       0.02665374      -0.02336435
O        0.51056788      -2.03460329      -1.28708616      -0.00394920       0.00134911       0.00911708
C        0.36397689      -0.81683043       1.12592462       0.01497494      -0.02123596       0.00833682
N        0.44075981      -1.44761657       2.11630726      -0.00431930       0.02200501       0.01171027
C        0.16211376       2.02270594       1.28248397       0.00358536       0.01403661      -0.00311960
H       -0.88337132       1.93676566       1.60046338       0.00125457      -0.01262055       0.00367688
H        0.82038227       1.54805422       2.01160433      -0.02638466       0.00529848       0.00862675
H        0.42720053       3.08128179       1.23148203      -0.00339944       0.04851160       0.01828282
N       -0.32125225       2.08496244      -1.17987439       0.00470068       0.00070495       0.01983394
H        0.33241041       2.65382482      -1.70106625      -0.01236073      -0.04619297       0.01743364
H       -1.04595057       2.68341323      -0.80331970       0.00336090       0.01195530      -0.02040468
