16
Properties=species:S:1:pos:R:3:forces:R:3 Coordinates=T from=T ORCA-job=T run=T Energy:=T 54.3484958=T energy=-82990.20809202646 pbc="F F F"
C        0.06897835      -0.11085430      -0.05634867      -0.01126536       0.08454548      -0.06776780
H        1.59784930       1.33465752      -0.25074820       0.17384648      -0.00043624       0.01040650
F       -1.30797890      -0.14222886       0.01959817      -0.22156223      -0.05530197       0.04586260
Br       3.79737681       1.06911000       1.75746894      -0.07721278       0.01244216      -0.03050591
C        0.51869366       1.32325472      -0.13558979       0.05984140       0.02789660       0.00914609
H        0.31923397       1.76649569       0.84657925      -0.00941294       0.00827222       0.08356834
N        0.40575537      -0.83958416      -1.35577388       0.15388421      -0.11623568       0.08725909
O        1.41700674      -0.49461664      -1.95354705       0.11723715       0.08719977      -0.04257457
O       -0.30817857      -1.79248356      -1.65747893      -0.20179336       0.03722109      -0.04870983
C        0.67894894      -0.89778121       1.07504152      -0.03726372       0.03992613      -0.11723191
H        0.42587877      -1.95295905       0.94464418       0.12918397      -0.01805399       0.03020658
H        1.75802207      -0.70584507       1.08539930      -0.05294736      -0.18271686       0.16445533
H        0.25283490      -0.55502549       2.02194185       0.09063860       0.09274833      -0.08237909
N       -0.12778307       2.01396950      -1.25154887       0.02297270      -0.04692935       0.05981224
H        0.42847085       2.83441947      -1.46424332      -0.15944298      -0.04592919      -0.04744711
H       -1.04888872       2.31715144      -0.96105438       0.02329623       0.07535150      -0.05410056
