18
Properties=species:S:1:pos:R:3:forces:R:3 Coordinates=T from=T ORCA-job=T run=T Energy:=T 172.5109593=T energy=-27559.63812634176 pbc="F F F"
C        0.05528110      -0.11368239      -0.03559404      -0.03292447      -0.05282525      -0.03300571
H        1.64386779       1.19905561      -0.11623172       0.04794023       0.02573427       0.03668046
Cl      -1.73796691      -0.26066410      -0.26628480      -0.02038263      -0.04144252      -0.06480791
F        2.88654218       0.51309455       0.58443508      -0.03587379      -0.00467199       0.01898357
C        0.51111186       1.33852379      -0.08428114      -0.00308856      -0.04861340      -0.02092818
N        0.66467653      -0.86943917      -1.23541577      -0.00870645       0.01518815       0.00537509
O        0.91910818      -0.22067482      -2.24377794      -0.01175701       0.03388913       0.02064801
O        0.82807973      -2.08059099      -1.11879204      -0.07171154       0.00486989       0.00564316
C        0.46484098      -0.82914898       1.22610735       0.02086362       0.00483046      -0.00810040
H        1.54864478      -0.65112992       1.29583559       0.01823291      -0.00115115       0.03682353
H       -0.06382656      -0.38911560       2.07336607       0.02080868      -0.03119682      -0.00751973
H        0.20744064      -1.88440488       1.14785691       0.04133290       0.01800063       0.03637274
C        0.24611795       2.06515843       1.23931414       0.01616356      -0.01485674      -0.00386503
H       -0.78933087       1.96735776       1.58307848      -0.00288846       0.01337513      -0.03295590
H        0.93732776       1.65703023       1.97444601       0.05346134       0.03350812       0.00681531
H        0.47346574       3.12608488       1.11188013      -0.01300619       0.00722039       0.01573677
C       -0.04750797       2.09324923      -1.19548471      -0.03963514       0.03107623       0.00002752
N       -0.50710292       2.79646637      -2.01990758       0.02117100       0.00706549      -0.01192330
