19
Properties=species:S:1:pos:R:3:forces:R:3 Coordinates=T from=T ORCA-job=T run=T Energy:=T 108.5973366=T energy=-14062.716735156431 pbc="F F F"
C       -0.05627780       0.01262695       0.03666410      -0.00072886      -0.02494827       0.02870416
H        1.59574313       1.29546821      -0.27118327      -0.08223289      -0.04197987       0.03275649
F       -1.45678547       0.07973342       0.02225312      -0.01607284      -0.02309435       0.00188916
H        3.24739974       0.38161077       0.90839150      -0.00012808      -0.03303628       0.02428216
C        0.52197487       1.42049998      -0.05840469      -0.05437922      -0.01340061       0.00852119
N        0.24800857      -0.78851319      -1.24315255      -0.05277045      -0.25158045       0.10737203
O        0.92902315      -0.27403767      -2.12722015       0.01696691      -0.00625969      -0.10073103
O       -0.22749162      -1.92583042      -1.29650780       0.02969181       0.25058177      -0.05519468
C        0.40609195      -0.80423099       1.20383499       0.05484506      -0.00172456       0.02050506
H        1.50826743      -0.74560628       1.22951214       0.06412497       0.05085991       0.00865290
H        0.01444956      -0.34725111       2.11439607       0.00338260      -0.05894420       0.00479698
H        0.04013239      -1.82906479       1.11630490      -0.00411551       0.03972543       0.00364028
C        0.44139644       2.10894383       1.29840474       0.00656777       0.01807582       0.04267432
H       -0.55004871       2.02632950       1.75853025      -0.03037681       0.01214379      -0.02999418
H        1.20332461       1.68197553       1.95270802       0.02762519      -0.03495735       0.01599586
H        0.67251246       3.16537291       1.15535149      -0.01943902       0.04381264      -0.05666024
N       -0.12387607       2.23102986      -1.09726866       0.01576403      -0.02837812      -0.02763374
H       -1.12972164       2.11972069      -1.01074218       0.03281712       0.03584382       0.02465548
H        0.13969699       1.83487281      -1.99112201       0.00845823       0.06726058      -0.05423220
