15
Properties=species:S:1:pos:R:3:forces:R:3 Coordinates=T from=T ORCA-job=T run=T Energy:=T 51.2486704=T energy=-13999.87943804273 pbc="F F F"
C        0.28280480      -0.01290733       0.10314446      -0.00584553       0.00019480      -0.01111186
H        1.82854265       1.48518572       0.19277868      -0.01660683       0.00669076      -0.03330549
F       -1.06292967      -0.01782083      -0.16088737      -0.02613594       0.01319786       0.00819780
H        1.98020052      -0.70281990      -0.78004904       0.04276680       0.00051556       0.01442325
C        0.73696524       1.44160321       0.11358280      -0.01436048       0.00196473       0.01553991
H        0.46244395       1.81705826      -0.87589199       0.01314442       0.00732114      -0.00038934
N        0.98413426      -0.69647521      -1.08737324       0.02488714      -0.00488781       0.00402326
O        0.89184474       0.10319432      -2.16687884      -0.01084531       0.01956874      -0.00601037
O        0.55876992      -1.96036015      -1.16822953      -0.01614966      -0.01502230      -0.00889867
C        0.52744278      -0.79437858       1.36628771      -0.00425031      -0.00148524      -0.00108355
H        1.59481824      -0.79464299       1.61061720      -0.00809396      -0.00910302       0.01889088
H       -0.03331960      -0.36183684       2.19880830       0.01176917      -0.01268610       0.01815388
H        0.20811519      -1.81429332       1.16038979       0.00248661      -0.00997583      -0.00795198
C        0.13848819       2.20559163       1.20396744       0.00903071      -0.02519229      -0.01119791
N       -0.33749120       2.80569200       2.09577363      -0.00179684       0.02889900       0.00072021
