15
Properties=species:S:1:pos:R:3:forces:R:3 Coordinates=T from=T ORCA-job=T run=T Energy:=T 188.5289938=T energy=-26494.693471405313 pbc="F F F"
C        0.10638579      -0.11650132      -0.08330098      -0.04219278       0.00235922      -0.03537255
H        1.66726729       1.33233696      -0.24546602       0.06593694       0.03080600       0.03246820
F       -1.26251284      -0.17532664      -0.29650795      -0.08290969      -0.01163804      -0.04964641
Cl       3.61108116       0.72284823       1.12711803      -0.01686370      -0.00143725      -0.00765920
C        0.57548604       1.32825870      -0.14464951       0.02311242      -0.04793794      -0.02213279
H        0.38047423       1.78735476       0.82888134      -0.04147004      -0.00633154      -0.03513398
N        0.67576207      -0.89164884      -1.28190934      -0.00914982       0.00555407      -0.00372638
O        0.93398559      -0.24644434      -2.29448656       0.04526876       0.01824274      -0.00124501
O        0.76011714      -2.11276206      -1.17576300      -0.05482828      -0.00061253       0.02311366
C        0.43640092      -0.82330771       1.19719563       0.02175138       0.03729809      -0.03577752
H        0.07218727      -1.84891698       1.13810735       0.04813725       0.02871359       0.06553262
H        1.51463261      -0.78528408       1.36717437       0.01963652       0.01144475       0.00674362
H       -0.07050147      -0.29163885       2.00577759       0.00834631      -0.04550237       0.01910032
C       -0.08514120       2.10901047      -1.19023122       0.05813809      -0.11023324       0.04654886
N       -0.62242461       2.75595170      -2.00883972      -0.04291336       0.08927445      -0.00281343
