17
Properties=species:S:1:pos:R:3:forces:R:3 Coordinates=T from=T ORCA-job=T run=T Energy:=T 53.6130344=T energy=-92349.51977924728 pbc="F F F"
C        0.00091315      -0.07163387       0.00995047       0.01435374      -0.03094772      -0.00389728
H        1.63286223       1.23482046      -0.05917143      -0.03402612       0.02042973      -0.06398483
Br      -1.98665065      -0.06959364      -0.07427640       0.00609265      -0.00760754      -0.01757202
Cl       3.82162966       0.47549545       0.95070590      -0.03829058      -0.00434865       0.02634862
C        0.53986533       1.34381909       0.00328659      -0.02627873      -0.02335145      -0.00063946
H        0.17443876       1.85182821      -0.89062698       0.01967661       0.02428349       0.02109446
N        0.39537057      -0.76885587      -1.30365269       0.01289613       0.01468948      -0.00544844
O        0.50047634      -0.06745978      -2.30535672      -0.02383437       0.03253908       0.00597452
O        0.54803132      -1.98664074      -1.27806790      -0.01510774      -0.00275602       0.03915707
C        0.45833906      -0.90129223       1.18053407       0.01860767      -0.01233673       0.01220236
H        1.55399769      -0.87162737       1.19064817       0.02787233      -0.00055049       0.03058147
H        0.08977491      -0.45051911       2.10257693      -0.01666420      -0.01359544       0.00355019
H        0.09775513      -1.92535076       1.10729586       0.00253090      -0.00126334      -0.00788112
C        0.21521045       2.13148174       1.27027746       0.01340262       0.02837185      -0.02166294
H       -0.85220402       2.11564666       1.51067472       0.02264433      -0.04415439       0.00980661
H        0.79642994       1.76189557       2.11693612      -0.02275392      -0.02781274      -0.02825478
H        0.50469994       3.17299616       1.11775579       0.03887865       0.04841088       0.00062557
