17
Properties=species:S:1:pos:R:3:forces:R:3 Coordinates=T from=T ORCA-job=T run=T Energy:=T 80.0434905=T energy=-21686.27236461601 pbc="F F F"
C        0.08289780      -0.11927943       0.00196555      -0.05396549      -0.13298776      -0.12970064
H        1.51421686       1.45818186      -0.34916622       0.01002682      -0.08929151       0.22367210
F       -1.33049316      -0.22806793      -0.14959485      -0.24165112       0.15751421       0.00480163
F        2.93486017       0.16904237       0.97717342      -0.19439521      -0.37108873       0.07044975
C        0.44764983       1.36351252      -0.16228951      -0.06525004      -0.11751276       0.11920705
N        0.50820373      -0.81580775      -1.38361488       0.20423741      -0.16220143       0.13437568
O        1.34164367      -0.28841075      -2.12034743       0.00786244       0.12189652       0.03002779
O        0.08524735      -1.96323529      -1.53168037      -0.11164407      -0.08364263      -0.11930149
N        0.59105995      -0.71059043       1.08133978       0.26431665       0.16649980      -0.01145640
H        2.01147881      -0.24837426       1.12369305       0.54194213       0.24848907      -0.10946046
H        0.41138818      -1.70935118       1.04797388      -0.14387844       0.03297097      -0.05014808
N        0.18838549       2.00538916       1.20990656      -0.07647608      -0.30614749      -0.00393611
O        1.10630262       2.02239464       2.01213537       0.31871661       0.24940473       0.29272318
O       -0.94911902       2.42566048       1.43507465      -0.13596917       0.07698550      -0.22719767
N       -0.32215270       1.99344896      -1.17724178       0.05200337      -0.04218154       0.02437679
H        0.11824333       2.87562188      -1.39868338      -0.21619769       0.14335499      -0.06058134
H       -1.24525290       2.14062516      -0.79224386      -0.15967810       0.10793807      -0.18785178
