16
Properties=species:S:1:pos:R:3:forces:R:3 Coordinates=T from=T ORCA-job=T run=T Energy:=T 235.9587646=T energy=-28432.6397485189 pbc="F F F"
C        0.14491886      -0.09015249      -0.10573231       0.03630769      -0.03520928       0.02206050
H        1.66084756       1.32951808      -0.59888391      -0.20308748      -0.05164890      -0.01245734
Cl      -1.71735184      -0.26510309      -0.32234574       0.04194044       0.18905509       0.15164518
F        2.61008914       0.46837713       1.92809236      -0.09226560      -0.07638002      -0.10606720
C        0.62673628       1.39000249      -0.22775027      -0.04581214       0.15160481       0.16641013
N        0.57046923      -0.83005798      -1.43870739       0.11507367      -0.01324353      -0.03579479
O        0.67708402      -0.15651698      -2.46462033       0.03748526      -0.19803489       0.16774830
O        0.77520517      -2.03822827      -1.35338022      -0.00458994       0.05956749      -0.01404359
N        0.57577808      -0.66109473       1.04119296       0.15608013       0.03309921      -0.19537203
H        1.53495378      -0.26618414       1.46206607      -0.15979324       0.03270194      -0.04135141
H        0.42470967      -1.65750771       1.06944466       0.03493515      -0.10520066      -0.05041435
N        0.69336790       2.12252338       1.01987733      -0.06004337      -0.04497922       0.20095524
H        1.39040429       1.63539794       1.60985513       0.09591005       0.14191167      -0.22154019
H       -0.20556055       2.07092687       1.48234111      -0.14745366      -0.02496815      -0.00026115
C       -0.19546655       2.15645273      -1.18422407       0.05080846       0.01388929      -0.14992310
N       -0.86175501       2.82476677      -1.88722537       0.14450459      -0.07216485       0.11840580
