18
Properties=species:S:1:pos:R:3:forces:R:3 Coordinates=T from=T ORCA-job=T run=T Energy:=T 170.8694038=T energy=-31045.851814779704 pbc="F F F"
C        0.12209233      -0.17956796      -0.12134464       0.11227421      -0.04065710       0.05528121
H        1.54521918       1.34195208      -0.50626451       0.11564816      -0.00177972      -0.00016030
Cl      -1.96082011      -0.17148999      -0.22060191      -0.18389323       0.11987309       0.06567899
F        2.70715178       0.16486883       2.05520813       0.21667770       0.05486684       0.10010866
C        0.50637337       1.31013545      -0.17899648       0.03044468       0.06547285      -0.10966953
N        0.35910638      -0.95617712      -1.46446761       0.69003521       0.63893477      -0.08271795
O        1.17773140      -0.45663759      -2.25314647      -0.44888727      -0.49259945       0.47566174
O       -0.11952223      -2.07730173      -1.55412825      -0.05374193      -0.24279668      -0.11667335
N        0.62666387      -0.79041820       0.92204759      -0.14231092       0.00337061      -0.01912694
H        1.90770348      -0.21000988       1.65794478      -0.03501643      -0.14822861       0.01121437
H        0.46439217      -1.79478470       0.89737773       0.00697381       0.08019794      -0.16777831
C        0.33255329       2.00698530       1.16733758      -0.07786895      -0.00068728      -0.04649511
H       -0.66275819       1.83939121       1.56320842      -0.24103644      -0.09827126      -0.05769213
H        1.05765173       1.62423483       1.87946246       0.04997853      -0.01550554      -0.13394164
H        0.47027006       3.08785139       1.06747069       0.08339170      -0.08679800      -0.12492845
N       -0.21277542       2.09571119      -1.26027835       0.30248014       0.01809460      -0.35975313
O       -1.12563503       2.84667878      -0.93338158      -0.22437623       0.05172538       0.18009159
O        0.21896196       1.99365809      -2.41489757      -0.20077274       0.09478758       0.33090028
