14
Properties=species:S:1:pos:R:3:forces:R:3 Coordinates=T from=T ORCA-job=T run=T Energy:=T 205.7919022=T energy=-84429.31259580501 pbc="F F F"
C        1.15388621      -0.04604370       0.18601146      -0.00481692       0.00874521      -0.00185587
H        1.10641393       1.88080154      -0.75670256       0.06362536      -0.00015324      -0.08115816
Br      -2.69114683      -0.14718688      -0.01960032       0.02697184      -0.01237563      -0.02926395
F        2.48607203       0.02753207       0.56903294      -0.05626706      -0.00931200       0.03295543
C        0.56811787       1.34160566       0.01983205      -0.00878471       0.03032184      -0.07219395
H       -0.48519082       1.23401221      -0.27578111      -0.01602855      -0.00450225       0.04523161
N        1.33040911      -0.70746255      -1.23334015      -0.03415341       0.00638892      -0.01415131
O        1.45820089       0.01880033      -2.21584024      -0.00694712       0.02188743       0.02781935
O        1.40138187      -1.93386869      -1.23957862      -0.01483800       0.01675705       0.01282925
N        0.42544016      -0.81985621       1.06465138       0.02496383      -0.01506834       0.02569958
H        0.70956664      -1.78824551       1.03210031       0.04991704      -0.09527749      -0.02745545
H       -0.58249017      -0.72825895       0.88250350      -0.02312581       0.01941141       0.02181968
C        0.66684745       2.07354122       1.27846548      -0.00397833      -0.00343146       0.10947323
N        0.76578139       2.68045945       2.27894586       0.00346187       0.03660855      -0.04974946
