16
Properties=species:S:1:pos:R:3:forces:R:3 Coordinates=T from=T ORCA-job=T run=T Energy:=T 71.3175041=T energy=-82990.1797607624 pbc="F F F"
C        0.43493979      -0.08920085      -0.02055203      -0.05586976      -0.04089695       0.01097385
H        1.59900081       1.65215615      -0.32736032      -0.01758474      -0.05938266       0.03483102
Br      -2.58189204       0.12581635      -0.34038763       0.07657341       0.01508469       0.01995880
F        3.27614925      -0.40302082       1.44208899      -0.06708174       0.14217390       0.13151339
C        0.55791283       1.40649806      -0.07440327      -0.12378491      -0.16632110      -0.02204384
H       -0.08007701       1.75390232      -0.88250932       0.00614675       0.03684889      -0.07636742
N        0.30640707      -0.81276817      -1.35550845       0.00584081       0.11949016      -0.08463052
O        0.44806570      -0.13591198      -2.36836441      -0.01424190       0.10828464      -0.07711163
O        0.20736612      -2.03505551      -1.32813548      -0.05099028      -0.03475560       0.10477753
N        0.68077795      -0.80326710       1.00061693      -0.07169715      -0.04474327       0.11904064
H        2.34023409      -0.40950695       1.52584986       0.09920843      -0.12620157      -0.04846886
H        0.53851075      -1.79404375       0.77602699       0.08053037       0.16907682      -0.07440223
C        0.12835289       2.03987193       1.24704230      -0.00630881       0.00776696       0.06297276
H       -0.93581375       1.86369587       1.39214264      -0.06663714      -0.14525974      -0.02692950
H        0.67068805       1.61521979       2.09001969       0.09322839      -0.04325912       0.06375382
H        0.29261727       3.11962466       1.24618347       0.11266824       0.06209393      -0.13786783
