16
Properties=species:S:1:pos:R:3:forces:R:3 Coordinates=T from=T ORCA-job=T run=T Energy:=T 52.4167572=T energy=-25492.782800817324 pbc="F F F"
C        0.08312790      -0.05863893       0.06341208      -0.02366041       0.01644901      -0.03976788
H        1.73330324       1.22439178      -0.22326882       0.02312273       0.03710393      -0.04111567
F       -1.30362779       0.01211079       0.22368584      -0.10017550      -0.02846601      -0.07755892
Cl       3.80145266       0.01127855       0.91980242       0.03717007      -0.01009672      -0.00002142
C        0.64478621       1.32209397      -0.19474248       0.01194044       0.00658386      -0.00283120
H        0.40707811       1.84563293       0.73693167       0.08170830      -0.00184239       0.01528673
N        0.13381467      -1.00431111      -1.20377685       0.09206290      -0.03768219       0.05292591
O        0.03535943      -0.51755543      -2.32674975      -0.01870671       0.04239632      -0.01218911
O        0.20672838      -2.21038438      -0.97483363      -0.03258691      -0.03903498       0.02614217
N        0.65924517      -0.66005560       1.16868827      -0.01704229       0.00288057      -0.04997506
H        1.67646256      -0.49948655       1.18633294      -0.01144478       0.00660110       0.03817621
H        0.45842784      -1.65209092       1.17912136       0.02015736       0.00909099       0.02742463
C        0.09263152       2.12544109      -1.37361726      -0.00125006      -0.02811983       0.03719790
H        0.55546495       1.83640463      -2.31580049      -0.02965589       0.00530255       0.03676471
H       -0.98720266       1.98577901      -1.46818115       0.02067849       0.07306179      -0.01059117
H        0.29709777       3.18840017      -1.20305415      -0.05231775      -0.05422800       0.00013216
