12
Properties=species:S:1:pos:R:3:forces:R:3 Coordinates=T from=T ORCA-job=T run=T Energy:=T 31.2096232=T energy=-92721.92416326412 pbc="F F F"
C        0.29690027      -0.07737768      -0.23283928       0.00598477      -0.01973204       0.01188722
H        1.79016485       1.33937856      -0.79841167       0.00758167       0.02590426       0.00614915
Cl      -1.34856207      -0.10859438       0.48580256       0.02280064      -0.00697936       0.00271012
Br       3.08816903      -0.04139723       1.67680569      -0.02111666      -0.00224768      -0.01674952
C        0.79508438       1.34998309      -0.35235210       0.01043961      -0.04204127       0.01286370
H        0.99356560      -0.53542344       0.48665130      -0.01102162      -0.01071828       0.01445514
H        0.84572268       1.79489962       0.63744035       0.00563220       0.02119794      -0.02261468
C        0.29434365      -0.83880083      -1.47813410      -0.01758373       0.03108751       0.00399989
N        0.30431875      -1.49604157      -2.45216695       0.01137152      -0.02839457      -0.00958131
N       -0.09573433       2.19231884      -1.20089354      -0.02005743       0.00927799       0.04108110
O       -0.57754030       3.20392102      -0.68933764       0.00640589      -0.00548452      -0.03433360
O       -0.28192248       1.82514399      -2.36088462      -0.00043678       0.02813002      -0.00986722
