13
Properties=species:S:1:pos:R:3:forces:R:3 Coordinates=T from=T ORCA-job=T run=T Energy:=T 91.5668250=T energy=-18136.633650913463 pbc="F F F"
C       -0.04346889      -0.09986150      -0.04315483       0.02923840       0.01078688       0.01960675
H        2.13945223       1.01088671       0.01780939      -0.00861930      -0.01092181       0.01470315
F       -1.42431056      -0.39562875       0.05966880      -0.02804548       0.02169514      -0.01471735
F        2.97491091       0.60510950       0.19694613      -0.01259144       0.01447708      -0.00202349
C        0.27674366       1.34065692      -0.07012449       0.01101984      -0.00219225      -0.00879422
H        0.42428286      -0.55218025       0.83166028      -0.00907386      -0.01638387       0.03585407
C        0.43625008      -0.76904577      -1.26434778       0.01394960       0.02209234       0.00774199
N        0.79984953      -1.33628021      -2.22596923       0.01308839      -0.03965071      -0.04765804
N        0.09601230       2.01246545       1.17823113       0.01238261       0.00673317       0.00396216
O        0.03999005       3.25083652       1.18304883      -0.00091233      -0.01313427      -0.00255669
O        0.06070286       1.32526014       2.21432573       0.01868238      -0.00396607       0.01371849
C       -0.04534440       2.10448669      -1.22337613      -0.05889908       0.01734213      -0.03377030
N       -0.27545048       2.69685442      -2.21823755       0.01978026      -0.00687775       0.01393346
