16
Properties=species:S:1:pos:R:3:forces:R:3 Coordinates=T from=T ORCA-job=T run=T Energy:=T 146.7839672=T energy=-9513.678249143682 pbc="F F F"
C        0.79877866      -0.04239731      -0.08935784      -0.00060455      -0.04023346       0.00101808
H        1.81350926       1.86108651      -0.41100235       0.03312078       0.02239484      -0.00648637
F       -1.85191430       0.17182016       0.59502152       0.01599950       0.00768564      -0.00829866
H        1.44050920      -0.40481517       0.72562182      -0.03806214       0.04486251      -0.01183154
C        0.80635965       1.49897114      -0.15618283       0.02906830      -0.00735984       0.00373511
H       -0.27413799      -0.29213140       0.14746354      -0.00438648       0.00579882       0.00611932
C        1.25148837      -0.66631296      -1.32891719      -0.00054903       0.00334538       0.07533851
N        1.62808086      -1.16967780      -2.32407933      -0.00011635       0.01771912      -0.01331198
C        0.36808152       2.02957182       1.21115941       0.02316564      -0.01679668      -0.01184742
H       -0.60067422       1.55213199       1.41376772       0.04384919       0.02103694       0.00266097
H        1.09274413       1.77663923       1.99673049      -0.02954600      -0.00249435      -0.01759340
H        0.26299912       3.12187196       1.17883842      -0.00512893      -0.04365370       0.05876402
C       -0.21004841       1.94295451      -1.20710240       0.00366554      -0.01140075       0.00011625
H        0.06354557       1.58605838      -2.20501977      -0.02527019      -0.00411040      -0.04148097
H       -1.16145558       1.50022538      -0.89131457      -0.03160948       0.00284404      -0.02970539
H       -0.28604584       3.03625357      -1.24172663      -0.01359581       0.00036191      -0.00719652
