15
Properties=species:S:1:pos:R:3:forces:R:3 Coordinates=T from=T ORCA-job=T run=T Energy:=T 82.8601576=T energy=-22442.696744860743 pbc="F F F"
C        0.20316887      -0.05884848      -0.19658752      -0.00032753       0.03242678      -0.00583067
H        1.53430581       1.54550053      -0.37960678       0.01541664      -0.00348335       0.00931047
F       -1.16128137      -0.29043466       0.06311406      -0.01310269      -0.00239385       0.02088840
Cl       3.09005850      -0.00317509       1.62112971      -0.00144643      -0.01481405       0.01133946
C        0.46517821       1.43800980      -0.17706471       0.00497780       0.01364611      -0.00521288
H        0.80380703      -0.54011218       0.57894068       0.01379947      -0.01747323      -0.00905405
C        0.49685123      -0.65657359      -1.51006932      -0.00025760       0.02002886       0.00375130
N        0.71499469      -1.16253188      -2.54663045       0.00317443      -0.01847817      -0.00866831
C        0.17561821       2.00038138       1.21424723       0.01125043       0.00247586      -0.00329316
H       -0.87631381       1.85130782       1.47739627       0.00096705      -0.00569387      -0.00287971
H        0.82263827       1.51517287       1.94652691       0.00602782      -0.01784068       0.01474524
H        0.38857120       3.07366244       1.22822087      -0.01216092       0.02374276      -0.01406681
N       -0.29208446       2.06208210      -1.26772645      -0.00060322      -0.02103010      -0.02547768
H       -0.01018125       3.03191264      -1.35038349      -0.00856088       0.00890199       0.02119373
H       -1.27475116       2.05589630      -1.01663701      -0.01915438      -0.00001507      -0.00674534
