14
Properties=species:S:1:pos:R:3:forces:R:3 Coordinates=T from=T ORCA-job=T run=T Energy:=T 86.7107988=T energy=-90172.29134848273 pbc="F F F"
C        0.84978081       0.00819230      -0.10241703      -0.00452198      -0.02098630      -0.02278025
H        1.73735726       1.90934882      -0.58091451      -0.04215949       0.00354159       0.02483617
Cl      -2.59667860      -0.19744623       0.19174950       0.00048187       0.01610726      -0.00427789
Br       2.19517471      -0.63855929       1.17617258       0.01201553      -0.01290001      -0.00477492
C        0.79765853       1.54421099      -0.12888245      -0.01461251      -0.02037446      -0.00571217
H       -0.12721650      -0.36732683       0.23367308       0.00249408      -0.01311149      -0.00083543
C        1.20852334      -0.51292545      -1.41557449       0.00736229       0.00815391      -0.00071186
N        1.55992760      -0.91379100      -2.46329966      -0.00853572      -0.03395819      -0.00995121
N        0.60274273       2.03344509       1.23782504       0.00738671       0.00500480      -0.02415666
H        0.25228857       2.98178919       1.18455012      -0.01091135       0.00052942       0.03632430
H        1.48341782       2.03641156       1.73928106      -0.00180280       0.05534596       0.02037359
N       -0.28648718       1.85309897      -1.02294044       0.02616472      -0.01719833      -0.05162240
H       -0.38120052       2.85203873      -1.15503316      -0.02097902       0.01633601       0.02321027
H       -1.16023826       1.44976308      -0.66966952       0.04761769       0.01350985       0.02007848
