14
Properties=species:S:1:pos:R:3:forces:R:3 Coordinates=T from=T ORCA-job=T run=T Energy:=T 74.8374753=T energy=-22877.68074379774 pbc="F F F"
C        0.77625129      -0.00021565      -0.10264079      -0.00032625       0.00180359       0.00590963
H        1.74810534       1.88233190      -0.55985654      -0.02166026      -0.01068827       0.02174314
F       -1.87076809       0.05136250      -0.01017192      -0.02159892       0.01646191      -0.02531511
Cl       1.96788116      -0.62935405       1.10526500      -0.01041339       0.01432201       0.01021269
C        0.78537286       1.53614601      -0.13871848      -0.00808623      -0.00687847      -0.00378381
H       -0.28405879      -0.27502358       0.17459310       0.01941724      -0.00226536      -0.00323863
C        1.12979285      -0.56144987      -1.40040403      -0.00395296       0.01734942       0.00362266
N        1.43967750      -1.04766171      -2.42572496      -0.00486178       0.01620827       0.00666838
N        0.59437649       2.03497992       1.23661296       0.03515890       0.00016853      -0.01880127
H        0.26235671       2.99047355       1.17013417      -0.01569386      -0.02606959      -0.00289888
H        1.48285453       2.04742640       1.72590126       0.02475050      -0.00133417       0.00336028
N       -0.28951559       1.88560183      -1.03024811      -0.00218099      -0.00982874      -0.00836943
H       -0.44938269       2.88659269      -1.00314877      -0.01139710      -0.00339558      -0.02254757
H       -1.12641357       1.34631006      -0.69978289       0.02084510      -0.00585356       0.03343792
