15
Properties=species:S:1:pos:R:3:forces:R:3 Coordinates=T from=T ORCA-job=T run=T Energy:=T 82.2292668=T energy=-22441.49502454753 pbc="F F F"
C        0.33797879      -0.05328684      -0.20483622       0.03505473      -0.03339841       0.00195877
H        1.54711087       1.60756656      -0.43680418      -0.01088114      -0.04453357      -0.05499891
Cl      -1.36757506      -0.54334498       0.20118886       0.02286983       0.00433254       0.01748869
F        2.10508977      -0.16011446       1.68560886      -0.02104591       0.01390759       0.00894767
C        0.48227346       1.46269571      -0.21723892       0.00516090      -0.00501882      -0.00534241
H        1.06096860      -0.37935540       0.64593411      -0.04018921      -0.00827703      -0.00370744
C        0.67538112      -0.63984909      -1.49092658       0.03962517      -0.05533940      -0.03704189
N        0.99908501      -1.14541978      -2.50412979      -0.02477703       0.03005802       0.05236729
C        0.24816083       2.04338388       1.17547229       0.00575946       0.00706098       0.01173281
H       -0.80354720       1.96721430       1.46755218      -0.02209754      -0.02640667      -0.01257672
H        0.88488252       1.47396110       1.86109811       0.00267666       0.01260932      -0.02548654
H        0.52601075       3.10364441       1.17186440       0.01721988       0.02670848       0.05769634
N       -0.29764149       2.06228856      -1.30636903      -0.00093831       0.05336738      -0.00013244
H       -0.09346246       3.05613879      -1.32771706      -0.03373956       0.03620477      -0.00424386
H       -1.28233551       1.97333726      -1.07098703       0.02530209      -0.01127517      -0.00666136
