14
Properties=species:S:1:pos:R:3:forces:R:3 Coordinates=T from=T ORCA-job=T run=T Energy:=T 93.6834149=T energy=-90172.53514224611 pbc="F F F"
C        0.86150800       0.01886133      -0.08071482      -0.00246331      -0.02417573      -0.02634483
H        1.76015194       1.90991892      -0.56824797      -0.02898871      -0.00742022       0.00336416
Br      -2.72971774      -0.30190788       0.14600869       0.01255165       0.02105966       0.00329970
Cl       2.09624438      -0.55093492       1.10433168      -0.00218415      -0.00823909      -0.01233853
C        0.81148298       1.55252793      -0.12954290       0.00656004      -0.01824594       0.00465519
H       -0.11992879      -0.35121041       0.24833379       0.00354663       0.00387428       0.00541752
C        1.21262506      -0.52457498      -1.39030923       0.01094278      -0.01042895      -0.01139869
N        1.56126892      -0.96726459      -2.42165333      -0.01505524       0.00313767       0.00650798
N        0.60281421       2.05651691       1.23111795       0.01803345       0.02075318      -0.01747233
H        0.37249288       3.04112208       1.16557093      -0.02749613      -0.00618137       0.03141941
H        1.45640625       1.96556340       1.77227964      -0.03081186       0.03724075      -0.00729946
N       -0.25601411       1.86833921      -1.04212762       0.02855487      -0.01044589       0.00604565
H       -0.34610599       2.86966063      -1.16300972      -0.00444385       0.00374130       0.00743141
H       -1.13695826       1.47761233      -0.69557710       0.03125385      -0.00466965       0.00671283
