14
Properties=species:S:1:pos:R:3:forces:R:3 Coordinates=T from=T ORCA-job=T run=T Energy:=T 83.7694203=T energy=-23443.783940675483 pbc="F F F"
C        0.22994721      -0.09072105       0.04373794      -0.01415563      -0.00131931      -0.02362494
H        1.69041671       1.27894607       0.00881130      -0.01264303       0.00530022      -0.03085278
Cl      -1.54397120      -0.39064544       0.36660711       0.03613918      -0.01511630       0.00167426
F        2.74053154       0.07651118      -0.16199536      -0.03254156       0.01268177       0.01916380
C        0.56350422       1.40535293      -0.00489572      -0.02300247      -0.00866688      -0.02219057
H        0.79744356      -0.55086013       0.84740092      -0.01751091       0.00335325      -0.02008706
C        0.56320364      -0.75415804      -1.21660035      -0.00550854      -0.01455323       0.03528415
N        0.63261959      -1.30467385      -2.25325311       0.02472358      -0.00659851      -0.00133534
C        0.07171729       2.08230502       1.18649026      -0.02976360       0.02109237       0.00532336
N       -0.32558713       2.67732076       2.12134170       0.04787578      -0.00936320       0.00945410
C        0.06757593       2.09123634      -1.27755802       0.00312964       0.00413390       0.00511824
H        0.59869560       1.67435614      -2.13622298      -0.01061585       0.00831300       0.01885683
H       -1.00931706       1.94925687      -1.41962925       0.02695661       0.01165088       0.00031568
H        0.27110008       3.16445320      -1.23427445       0.00691680      -0.01090796       0.00290028
