15
Properties=species:S:1:pos:R:3:forces:R:3 Coordinates=T from=T ORCA-job=T run=T Energy:=T 191.7269025=T energy=-36289.99752403149 pbc="F F F"
C        0.86156873      -0.03014163      -0.08189090      -0.01570199      -0.08066030       0.09553442
H        1.83206414       1.88541393      -0.29864458       0.05346916       0.02794965      -0.04740731
Cl      -2.38573273      -0.23891555       0.39505020       0.02863413      -0.02160195      -0.02082842
Cl       2.24526671      -0.64720788       0.89401409      -0.01134396       0.06794014       0.01153060
C        0.82066718       1.49457241      -0.15076789       0.07025698      -0.04801573      -0.00772736
H       -0.08882800      -0.38119197       0.35426558      -0.00022038      -0.05028300       0.03472280
C        1.02785339      -0.59713603      -1.41791260      -0.02113380       0.00624600       0.13593438
N        1.21775131      -1.08768542      -2.46789987      -0.01199912       0.01574598      -0.16210304
N        0.42357779       2.08397145       1.19333435       0.01466963      -0.01821558      -0.01499148
O        0.16179673       3.28538006       1.18400648       0.01933679       0.08385758       0.05051672
O        0.46727075       1.37903433       2.19390175      -0.07999563      -0.04505623      -0.07187018
C       -0.13289637       1.98462581      -1.23117959       0.00333865      -0.00526888       0.04177115
H        0.29324233       1.78195207      -2.21616013      -0.00383290       0.03086344       0.01779541
H       -1.08743500       1.46525415      -1.12825810      -0.04480999       0.01528863       0.04113393
H       -0.27893697       3.05604427      -1.10621878      -0.00066756       0.02121025      -0.10401160
