15
Properties=species:S:1:pos:R:3:forces:R:3 Coordinates=T from=T ORCA-job=T run=T Energy:=T 76.9882116=T energy=-14001.462169342623 pbc="F F F"
C        0.70540025      -0.08223294      -0.12275309      -0.00237436      -0.00810787       0.00686285
H        1.67459710       1.83556571      -0.57768961       0.01574136       0.00781800      -0.03468985
F       -1.74256342       0.26729943       0.67028410       0.00696823       0.00833723       0.01889456
H        1.23010666      -0.40191923       0.78396302       0.00303736      -0.00903164       0.00258104
C        0.73505975       1.44273466      -0.16765254       0.01348688       0.00351015       0.01055772
H       -0.40632903      -0.28365222       0.05950983       0.00416999      -0.02425507      -0.00435141
C        1.31967285      -0.73997033      -1.26414262      -0.01385988      -0.00918666      -0.00042280
N        1.84422615      -1.30379709      -2.15430244       0.00500947       0.00854860       0.00539369
C        0.43255503       2.02463382       1.20167871      -0.01892622       0.01341763       0.02872802
H       -0.52404706       1.57637094       1.49100637      -0.03967379      -0.01394574      -0.00214745
H        1.22408886       1.73675736       1.90075684       0.02956560      -0.00454240      -0.01572507
H        0.37409367       3.11135502       1.16101267      -0.01971181       0.02759488       0.00987770
N       -0.29939292       1.92865705      -1.16489784       0.00364991      -0.02349937       0.00034867
O       -0.71576870       3.07970871      -1.03752648       0.02403725       0.00187706       0.00400158
O       -0.58559917       1.18506911      -2.09683691      -0.01112002       0.02146522      -0.02990925
