13
Properties=species:S:1:pos:R:3:forces:R:3 Coordinates=T from=T ORCA-job=T run=T Energy:=T 105.1415797=T energy=-91174.98439457221 pbc="F F F"
C        0.15072465      -0.08248766      -0.20108527      -0.03020671      -0.02621778       0.00488724
H        1.60321245       1.41854762      -0.44537315      -0.00614731      -0.00606032      -0.02088366
Cl      -1.59188838      -0.32798633       0.13061468       0.04188761      -0.01677303       0.00591918
Br       3.09190165       0.14682595       1.68216169      -0.02270634      -0.00140522       0.00364355
C        0.53372028       1.40712836      -0.18356838      -0.00831961      -0.01345032       0.00413314
H        0.73035321      -0.55669809       0.59951046      -0.00693293       0.02329458      -0.04369282
C        0.48155394      -0.69698974      -1.48585330       0.01305650      -0.00436592       0.01725842
N        0.74081717      -1.17747304      -2.52694014      -0.00338917       0.00791882       0.01359233
N        0.27683946       1.94968727       1.14317877       0.00820429       0.01302424       0.03366789
H        0.42265351       2.95306804       1.10948264       0.00718746       0.00951058       0.00926673
H        1.02430028       1.56151266       1.72453115       0.01477430      -0.00439652       0.02596679
C       -0.22217965       2.15119312      -1.19866264       0.00519213      -0.01674390      -0.02818311
N       -0.80776827       2.77144183      -2.00620640      -0.01260016       0.03566479      -0.02557565
