13
Properties=species:S:1:pos:R:3:forces:R:3 Coordinates=T from=T ORCA-job=T run=T Energy:=T 76.9288846=T energy=-78438.36545733095 pbc="F F F"
C        0.93012990      -0.06264012       0.01397695      -0.01012419      -0.01300554       0.01648564
H        1.54520152       1.90863162      -0.53451339      -0.01234688       0.01843257      -0.00025740
Br      -2.63176050      -0.11465055       0.07966709       0.01979750      -0.00864779       0.01492826
F        1.97255457      -0.30158342       0.92433738       0.00299451       0.04586810      -0.00410550
C        0.65925733       1.42632567      -0.10433695       0.00136686       0.01180251       0.05356237
H        0.03508665      -0.58045473       0.36752656      -0.05404501       0.03471104      -0.03647717
H       -0.18237367       1.53335231      -0.79466240       0.04019765      -0.02529267      -0.00608668
C        1.35713430      -0.61717219      -1.28277821       0.00011720      -0.01637547      -0.00393031
N        1.73399132      -1.01567240      -2.32087462       0.01604223      -0.03812459      -0.03031616
C        0.28284179       2.04053100       1.24038947      -0.02380057       0.03321647       0.02569179
H       -0.63413283       1.57162386       1.60280356       0.02327107      -0.02133818      -0.00297685
H        1.08102611       1.92178293       1.97798109      -0.00883016      -0.03596295      -0.03403849
H        0.08682335       3.10963598       1.11930342       0.00535975       0.01471649       0.00752051
