15
Properties=species:S:1:pos:R:3:forces:R:3 Coordinates=T from=T ORCA-job=T run=T Energy:=T 61.8699065=T energy=-79939.51071116343 pbc="F F F"
C        0.34185892      -0.07315816      -0.19136049       0.01261585       0.03277753      -0.00531295
H        1.67055860       1.47239728      -0.51223203      -0.00904498      -0.01402302       0.01144648
Br      -1.53527934      -0.51875546       0.19782176      -0.01082302      -0.00849607       0.02055584
F        1.97399838       0.02481572       1.89172508      -0.01139994      -0.02005097      -0.01325928
C        0.59814599       1.43987906      -0.24199311      -0.01214657       0.01881615      -0.01019708
H        0.96973710      -0.40862484       0.68714065       0.03160795      -0.01309402      -0.01011584
C        0.69255929      -0.71508908      -1.44613950       0.00009054       0.00324579      -0.00139091
N        0.99779290      -1.20162216      -2.47440649       0.01240361      -0.00818056       0.02272914
N        0.35773467       1.97293545       1.09152444      -0.00494044      -0.01285039      -0.01128584
H        0.70847917       2.92644459       1.11148973       0.01697547      -0.02083917      -0.00738144
H        0.97276007       1.38406821       1.68961867      -0.01290277       0.00899946       0.01731592
C       -0.20885617       2.18196884      -1.29533688      -0.01066917       0.01716464      -0.00391315
H       -0.05726115       1.76341795      -2.29534934       0.01072480       0.00148518       0.00673906
H       -1.26957055       2.13725817      -1.04157975      -0.01045679       0.00474722       0.00372766
H        0.09222210       3.23539443      -1.31559273      -0.00203455       0.01029821      -0.01965761
