12
Properties=species:S:1:pos:R:3:forces:R:3 Coordinates=T from=T ORCA-job=T run=T Energy:=T 33.4877678=T energy=-78873.13905078315 pbc="F F F"
C        0.30142744      -0.02530939      -0.19688451      -0.02082013      -0.02433252       0.01637007
H        1.53067437       1.60997073      -0.55391368      -0.02861996       0.02461140      -0.01305484
Br      -1.54455859      -0.53349102       0.26054429       0.03289506       0.01408497      -0.01878785
F        2.05956226       0.07038723       1.77025929       0.00084397      -0.01398298       0.00463049
C        0.49617145       1.48918223      -0.18833787      -0.00117424      -0.01927529       0.00329714
H        0.98792578      -0.38435558       0.62601152       0.00434787       0.04028054      -0.00308456
H       -0.19024701       1.97341001      -0.89627615       0.01531913       0.00171167       0.03037514
C        0.60905513      -0.59542881      -1.49654426       0.00146494      -0.04452145      -0.01578807
N        0.88664795      -1.03737781      -2.55214356      -0.00373336       0.01485901       0.01678083
N        0.30461063       1.98037649       1.16904992       0.01168425       0.00618264      -0.02627460
H        0.59484488       2.95258549       1.19105316       0.01695276      -0.00166062       0.02091895
H        0.99425568       1.41683044       1.70441185      -0.02916032       0.00204262      -0.01538270
