12
Properties=species:S:1:pos:R:3:forces:R:3 Coordinates=T from=T ORCA-job=T run=T Energy:=T 29.2871368=T energy=-18677.11933947612 pbc="F F F"
C        0.56177466      -0.01038520       0.20421333       0.00178894      -0.03785311      -0.00907434
H        1.78715754       1.61029741      -0.13544678      -0.00926766      -0.00847486       0.00073450
Cl      -1.23566807      -0.39888896       0.42695776       0.01484035       0.01816383      -0.01986819
H        0.41705422      -1.34958566      -1.58741490       0.01552150      -0.02207656       0.02570401
C        0.72191879       1.48424309       0.07399451      -0.01278595      -0.01542772      -0.00051426
H        1.03153902      -0.35218528       1.13014624      -0.00144326      -0.01976171      -0.00101779
H        0.15768830       1.80163680      -0.81785757      -0.01222284       0.04187844      -0.00266598
C        1.20741265      -0.72944232      -1.04574157      -0.00160435      -0.00036023      -0.02947849
N        2.40227295      -0.54624839      -1.31804891       0.00745634      -0.01179674      -0.00004651
N        0.35790393       2.21289934       1.29741078      -0.01326695       0.03771394       0.01760497
H       -0.63380986       2.06975567       1.45508887      -0.00137070      -0.01963055       0.02851525
H        0.48320588       3.20567350       1.13081824       0.01235458       0.03762526      -0.00989316
