16
Properties=species:S:1:pos:R:3:forces:R:3 Coordinates=T from=T ORCA-job=T run=T Energy:=T 28.0703523=T energy=-12209.535868209921 pbc="F F F"
C        0.32117413      -0.06938311      -0.17192352       0.01805947      -0.02882780       0.00606425
H        1.63167983       1.53450379      -0.38976499      -0.01439981       0.00413862       0.01135107
F       -1.04765178      -0.33504433       0.06559556       0.00630687       0.00950884       0.00432659
F        2.04374171      -0.14060969       1.84767861       0.00981765      -0.03436705      -0.00293105
C        0.55201183       1.43887139      -0.21975445      -0.00187716      -0.02952512      -0.00905591
H        0.96439925      -0.43544930       0.68258304      -0.00233334       0.03094198      -0.00333161
C        0.66067981      -0.71427164      -1.44946137       0.00600076       0.02555389       0.02110866
N        0.95266730      -1.22127136      -2.46998129      -0.00325391      -0.00816728      -0.00227195
C        0.25655206       2.01667348       1.16450174      -0.00920185       0.01193172       0.00647989
H       -0.80806111       1.92028981       1.40022136      -0.01393396      -0.02234179       0.01291557
H        0.86747183       1.43869875       1.86848914      -0.01846492      -0.00956076      -0.01072801
H        0.51595298       3.08058439       1.19959190       0.02968107       0.02979499      -0.00519776
C       -0.23421046       2.12408108      -1.33415771       0.00373343       0.00834367      -0.01609948
H        0.03739850       1.74103914      -2.32301416      -0.00644561      -0.01465485      -0.00363203
H       -1.30670932       1.96400895      -1.18813023       0.00872170      -0.00038601      -0.00744667
H       -0.04798656       3.20265865      -1.32668364      -0.01241037       0.02761696      -0.00155155
