13
Properties=species:S:1:pos:R:3:forces:R:3 Coordinates=T from=T ORCA-job=T run=T Energy:=T 207.9719336=T energy=-18135.719881700392 pbc="F F F"
C        0.91422547       0.05504554       0.00201013       0.00041828       0.16933304       0.04826086
H       -0.09623625       1.06076917       1.48099973      -0.11108233       0.06471363      -0.04038010
F       -0.78296093      -0.62245257       1.44134088      -0.02472062      -0.06779950       0.01517071
F        1.97199863       0.27231992      -0.88942595       0.04690906      -0.07892028       0.00091807
C        0.59224964       1.37164023       0.68416897       0.05484173       0.02487672       0.04223416
H        1.51127305       1.79735231       1.09080043       0.04375322      -0.02638663      -0.04190781
C       -0.19640821      -0.52261856      -0.74941766      -0.02244086      -0.06645425      -0.07246924
N       -0.90238734      -0.85021316      -1.63425898       0.00489810      -0.03272885       0.06551165
N        1.48208617      -0.94730171       0.98853286       0.13158904       0.30501860       0.04037108
O        2.02370858      -0.49666921       1.99597643      -0.09354643      -0.08324500      -0.19849641
O        1.52104679      -2.10507373       0.60173729       0.02083606      -0.21676022       0.03627671
C       -0.04152236       2.29959992      -0.24742012      -0.31910638       0.02458284       0.05712915
N       -0.64955326       3.02997186      -0.94193399       0.26765113      -0.01623010       0.04738117
