14
Properties=species:S:1:pos:R:3:forces:R:3 Coordinates=T from=T ORCA-job=T run=T Energy:=T 191.6336368=T energy=-17133.37350427155 pbc="F F F"
C        1.09077794       0.05251701      -0.01602591       0.01045091       0.01705647      -0.00978216
H        1.68225079       2.08144126       0.11643186       0.00298826      -0.03400974      -0.01761184
F       -1.24018326      -0.04459204      -0.10974569      -0.00126019       0.00558309      -0.00531925
F        2.49175661      -0.07600149       0.10679060       0.00824493      -0.01087706       0.00921575
C        0.73612021       1.53737052       0.01080119      -0.01427096      -0.01016059       0.00861704
H        0.12595490       1.69303357       0.89957180       0.00462608       0.00808736       0.02675628
C        0.71321012      -0.68394363      -1.22579975       0.01166423      -0.01868729      -0.01771980
N        0.68635902      -1.29246117      -2.23269883       0.00584693       0.01894644       0.03497701
N        0.62149486      -0.71089723       1.21553454       0.01370907       0.02024047       0.00223912
O        0.52398619      -0.07656917       2.26105946      -0.00190046       0.00218984       0.00122589
O        0.56172972      -1.93001514       1.11893747      -0.01766939       0.01644143      -0.02616238
N        0.06910336       1.91637311      -1.23333938      -0.01187119       0.00021025      -0.02081691
H       -0.16447365       2.90204731      -1.17421382      -0.00756825      -0.00505322       0.01984425
H       -0.79589682       1.36725709      -1.16054352      -0.00298997      -0.00996746      -0.00546300
