14
Properties=species:S:1:pos:R:3:forces:R:3 Coordinates=T from=T ORCA-job=T run=T Energy:=T 92.7553825=T energy=-23444.45127873326 pbc="F F F"
C        0.09411626      -0.06828001      -0.08804519      -0.00251760      -0.00539318      -0.00249335
H        1.44732117       1.55270655      -0.35889189      -0.02248086       0.01755539       0.02255348
F       -1.30961196      -0.20446247      -0.21494631      -0.00781815       0.01414002      -0.00112025
Cl       3.20785673       0.03206877       0.54072495      -0.01061020      -0.01996148      -0.01330016
C        0.40278795       1.42904113      -0.07778686      -0.00964749      -0.00960734       0.02646249
H       -0.24652261       1.85156380      -0.85425475       0.01746817       0.01109442       0.01811078
C        0.66082335      -0.73049893      -1.27628980      -0.00098484      -0.00670353      -0.00946085
N        0.93053275      -1.21992099      -2.31001409       0.01311573      -0.02591564      -0.00904584
C        0.41771202      -0.77854467       1.16359977      -0.00088823       0.03136897       0.00518589
N        0.33463284      -1.34284652       2.19299629       0.03182891      -0.03047838      -0.00809935
C        0.14623405       2.04996000       1.28965631      -0.00129070       0.01667955       0.01588773
H       -0.83569151       1.77596283       1.68529131      -0.01224586      -0.01554751      -0.02336878
H        0.91819981       1.71108215       1.98222050      -0.00277669      -0.00497252       0.01818359
H        0.19597915       3.13998838       1.23098975       0.00884779       0.02774124      -0.03949538
