14
Properties=species:S:1:pos:R:3:forces:R:3 Coordinates=T from=T ORCA-job=T run=T Energy:=T 50.6086697=T energy=-90737.87571271516 pbc="F F F"
C        0.94625146      -0.04548439      -0.06910680      -0.00226982       0.01105578      -0.00160752
H        1.32029226       1.93778901       0.61820398       0.00530792      -0.00688849      -0.00896365
Cl      -2.14167562      -0.19704791       0.61015257       0.00961355      -0.01127667      -0.00543083
Br       2.89343047      -0.13572149      -0.61282477      -0.01377355       0.01082702       0.00892557
C        0.55615839       1.43952236       0.01307503       0.00439768       0.00667965      -0.01362353
H       -0.39713841       1.44680899       0.54573587       0.01519615       0.01197530      -0.01074780
C        0.25119905      -0.80166276      -1.11334545      -0.01176834      -0.00027500      -0.00662508
N       -0.09431950      -1.39099615      -2.07252557       0.00132670       0.00476017       0.01305141
C        0.90558236      -0.70210379       1.23810948      -0.00887010      -0.01856544      -0.00270070
N        1.03776391      -1.19286700       2.29932751       0.00495310       0.00922602       0.00037224
C        0.39196639       2.09002746      -1.35388935      -0.00145457      -0.00329856       0.00278334
H        1.28313618       1.98000476      -1.97826796      -0.00302974      -0.00454050       0.01902026
H       -0.46217427       1.64707261      -1.87047399       0.00249706       0.00648773      -0.00057047
H        0.19319736       3.15843830      -1.22840058      -0.00212599      -0.01616701       0.00611674
