16
Properties=species:S:1:pos:R:3:forces:R:3 Coordinates=T from=T ORCA-job=T run=T Energy:=T 194.9640120=T energy=-34742.408310231534 pbc="F F F"
C        1.09371432       0.03877263       0.00827385      -0.01090077      -0.01922582      -0.00702329
H        1.72495224       2.06592097      -0.17892848       0.00787724      -0.00531437      -0.02184787
Cl      -2.17501579      -0.16638434      -0.08913260      -0.01500557       0.00814611      -0.02434263
Cl       2.91256094      -0.11513400       0.25679820       0.01616346      -0.02562758       0.00805732
C        0.75785410       1.57597116      -0.03399511       0.00786267      -0.02035899      -0.03073779
C        0.81387587      -0.64630011      -1.25750934       0.01879299       0.00369306      -0.02482993
N        0.73264519      -1.23949112      -2.26973331       0.02162359      -0.00363119       0.02339768
C        0.52300303      -0.69042324       1.14971467      -0.00141375       0.04643207       0.00918651
N        0.30590685      -1.25238958       2.16091067       0.00130311      -0.02182980      -0.01718035
C        0.17419581       2.04331525       1.29855440       0.00462685      -0.00842425       0.00804071
H       -0.80496526       1.58688780       1.44621635      -0.02482065       0.01135150       0.00686093
H        0.82716803       1.78653495       2.13817022       0.02101492       0.01951100       0.02955622
H        0.06737973       3.13246986       1.26886891      -0.01094349       0.01014518       0.00342736
N       -0.02659669       1.86484122      -1.22411258      -0.01591502       0.00269674      -0.01957249
H       -0.15913018       2.86908906      -1.27848593      -0.01534635      -0.00249160       0.00806314
H       -0.94075820       1.41902949      -1.11810992      -0.00491924       0.00492793       0.04894447
