15
Properties=species:S:1:pos:R:3:forces:R:3 Coordinates=T from=T ORCA-job=T run=T Energy:=T 166.3765651=T energy=-15586.304862630148 pbc="F F F"
C        0.20645306      -0.04751188      -0.16124721      -0.00638476      -0.02751358      -0.00075246
H        1.45670759       1.61084703      -0.67426647      -0.00534756      -0.01190951       0.03503075
F       -1.12324483      -0.26589539      -0.59512733      -0.01216039      -0.02153511       0.02013594
F        2.36900293       0.12131634       0.81123691      -0.00263042       0.01204520      -0.00130477
C        0.48822860       1.48851625      -0.18370792       0.01118633      -0.02666854       0.00675092
C        1.06603480      -0.76835268      -1.11563585      -0.01487170       0.02818385       0.00538487
N        1.58798323      -1.36797073      -1.98136575       0.01087445       0.01682090      -0.01201828
C        0.27361866      -0.67779956       1.17070091      -0.00681076       0.00692169       0.01194169
N        0.02005135      -1.26943034       2.15659832       0.00020568      -0.00970598      -0.02622094
N        0.51536639       1.95092559       1.20213022       0.01351343       0.01331351      -0.01600812
H        0.74361162       2.94126226       1.18747739       0.00694305       0.01336324      -0.02044027
H        1.34180672       1.44894900       1.55721158      -0.02348036      -0.00453485      -0.00652054
N       -0.51568928       2.14334153      -1.01098208       0.01936949      -0.01006445       0.01823306
H       -0.25035031       3.11962712      -1.08831759      -0.02852308      -0.00303690      -0.01858758
H       -1.40338054       2.10206545      -0.52060512       0.03811660       0.02432053       0.00437574
