13
Properties=species:S:1:pos:R:3:forces:R:3 Coordinates=T from=T ORCA-job=T run=T Energy:=T 172.9966480=T energy=-27932.117179940917 pbc="F F F"
C        0.08045291      -0.05999134      -0.00718096      -0.00365406      -0.01678906      -0.01919902
H        1.68720555       1.33885792      -0.17771215      -0.02894165      -0.00503872       0.03748897
F       -1.31743043      -0.04223199       0.03795867      -0.00431443      -0.00059123      -0.01243146
Cl       3.43882655       0.09623290      -0.17750207       0.04106818      -0.00919830       0.04589456
C        0.58617427       1.37214701      -0.07558074      -0.01333737      -0.00065089       0.02496543
H        0.28661118       1.90614752       0.82731784       0.03936988       0.02778718      -0.05009708
C        0.47835827      -0.92072153      -1.13631822       0.01216859      -0.02957505      -0.04918913
N        0.66766303      -1.68423354      -2.01003733      -0.06294946       0.02138345       0.03450849
C        0.51506506      -0.67663192       1.26554846      -0.00827621       0.02917650      -0.06322120
N        0.65611830      -1.17502404       2.32094159       0.03734499       0.02498441      -0.00126494
N        0.01855787       2.12461192      -1.22645639      -0.00624870      -0.02738941       0.00313815
O        0.08947084       3.34964496      -1.14625467      -0.02971951       0.00601079       0.04026744
O       -0.43929345       1.49986213      -2.18139402       0.02748976      -0.02010968       0.00913978
