13
Properties=species:S:1:pos:R:3:forces:R:3 Coordinates=T from=T ORCA-job=T run=T Energy:=T 70.6918732=T energy=-23879.334588279606 pbc="F F F"
C        0.29175692      -0.06913182      -0.01236719      -0.03944912       0.01787153       0.00183741
H        1.64559981       1.48860417       0.00239206      -0.01470281      -0.01129116      -0.01764400
Cl      -1.56744821      -0.25972142       0.05798214      -0.02415404       0.00163803       0.00522300
F        2.61410382      -0.21635085       0.01168442      -0.02171257       0.00534830       0.02503262
C        0.55698165       1.44247651      -0.00748357      -0.00106984      -0.01134371      -0.00949203
H        0.14375950       1.82543032       0.93891880       0.02249912      -0.00252243      -0.03493917
C        0.70637923      -0.73930040      -1.24381048       0.00019672       0.00384657       0.01000036
N        0.78656852      -1.30610909      -2.27179691       0.03477173       0.01053891      -0.01340761
C        0.80947779      -0.70545160       1.20096515       0.00623200       0.00399936      -0.00904453
N        0.88479150      -1.17727106       2.27875332       0.02133821      -0.01370573       0.00685090
N        0.01497150       2.07106386      -1.20478363       0.01665081      -0.01129143       0.04515278
H        0.49593106       2.94719656      -1.35919238      -0.02205347      -0.00833019      -0.02751106
H       -0.97303309       2.25996483      -1.09204174       0.02145327       0.01524197       0.01794133
