16
Properties=species:S:1:pos:R:3:forces:R:3 Coordinates=T from=T ORCA-job=T run=T Energy:=T 195.2313715=T energy=-24947.398916982344 pbc="F F F"
C        0.01482023      -0.16260640      -0.01826107      -0.01479255       0.00893130      -0.00470044
H        1.54976882       1.31168327      -0.00805888       0.02734097       0.00190937       0.08617839
F       -1.39341991      -0.20500984      -0.03212316       0.02685190      -0.05544140      -0.01738478
Cl       3.61801033       1.15084087       0.69703509       0.08725448      -0.01545768      -0.00691533
C        0.44477959       1.30204865      -0.01927675      -0.01953071      -0.03210191      -0.03223831
C        0.45258836      -0.78934265      -1.28201836      -0.05292940      -0.11024902      -0.00354687
N        0.73746340      -1.38395403      -2.25485182       0.02442027       0.05232592       0.04923130
C        0.53492853      -0.89753256       1.20082783      -0.00248151       0.03588446       0.13255139
H        0.52243740      -1.98406532       1.05928709      -0.08740086       0.16932832       0.03780540
H        1.55959819      -0.55288089       1.38833291      -0.04512390      -0.15156766       0.02184873
H       -0.10970180      -0.61850203       2.04531212       0.19751545      -0.10725334      -0.09351227
C       -0.01701915       1.94775796       1.22298215      -0.03281672      -0.09873184      -0.07483082
N       -0.45298241       2.48429114       2.17301654      -0.03493671       0.07748690       0.08645055
N       -0.04186100       1.95034013      -1.22125106      -0.02000510      -0.07566612      -0.11699645
H        0.58820509       2.69633295      -1.47631556      -0.10128549       0.18156298       0.00421824
H       -0.98289571       2.29678874      -1.09182708       0.04791989       0.11903971      -0.06815872
