18
Properties=species:S:1:pos:R:3:forces:R:3 Coordinates=T from=T ORCA-job=T run=T Energy:=T 64.9227911=T energy=-81006.82848690766 pbc="F F F"
C        1.23583416      -0.00579015       0.16336253       0.00995991      -0.00791692       0.03482898
H        1.84443998       1.77929315      -0.81998082      -0.00179717      -0.03515244      -0.04426033
Br      -3.19596961      -0.58382508      -0.79259419       0.00256582       0.01551240       0.02382477
F        2.47724100      -0.14875486       0.83069588      -0.00059417      -0.01600047      -0.00216623
C        1.06027252       1.49578569      -0.09826382      -0.02869710       0.05327053       0.07896266
C        1.40675110      -0.71017529      -1.12366757       0.00913137       0.00186686       0.03767805
N        1.60895314      -1.25306200      -2.14535652       0.00638406      -0.01838944      -0.04788890
C        0.14751116      -0.62518780       1.00924165       0.01666474      -0.03313374       0.03662969
H        0.03212456      -0.01740288       1.90851648      -0.00519016      -0.01905011      -0.01740617
H       -0.80746249      -0.67479836       0.47000707       0.06462257       0.01412460       0.01389022
H        0.45133690      -1.63806367       1.28664782      -0.01203489       0.00412475      -0.01072303
N        1.22239073       2.19307038       1.17874047      -0.04638935       0.03516226       0.05643247
H        0.94978436       3.15997303       1.05528387      -0.08149870       0.03992884      -0.01330113
H        2.19509493       2.18436073       1.45615952       0.06704509      -0.08394647      -0.01165194
C       -0.31188155       1.78806222      -0.68161557      -0.00248052       0.01922794      -0.03730154
H       -0.54030460       1.14002961      -1.52724439      -0.04640718       0.01236652      -0.07712981
H       -1.10173595       1.61305712       0.04985227       0.04055217       0.00818367      -0.00630425
H       -0.35986070       2.82973803      -1.01595481       0.00816347       0.00982120      -0.01411352
