16
Properties=species:S:1:pos:R:3:forces:R:3 Coordinates=T from=T ORCA-job=T run=T Energy:=T 56.0553182=T energy=-79503.02664306558 pbc="F F F"
C        1.19110874      -0.00962348       0.12274306      -0.01982049       0.01644084      -0.02168451
H        1.03217881       1.92556376      -0.81245255       0.00271077      -0.02492959       0.01576960
F       -1.99476467       0.20826313       0.45813628       0.00495147      -0.02706222       0.01487886
Br       3.10261990       0.29989826       0.70338442       0.01387783       0.00551077      -0.00146799
C        0.47861722       1.32584136      -0.08107488      -0.00007098       0.00384812       0.01077183
H       -0.51982899       1.02358308      -0.44503108       0.00963576       0.01349714       0.01340642
C        1.33157894      -0.69322892      -1.16638002      -0.01988125      -0.01943468       0.02355282
N        1.41850628      -1.24188798      -2.20392910       0.01414122       0.01006281       0.00654370
C        0.48377078      -0.89320580       1.13789593       0.01388708       0.02104018      -0.03728374
H        0.87530448      -1.91383155       1.11127291      -0.03037500       0.01331500       0.00079198
H        0.63301049      -0.47774742       2.13787221      -0.02296976      -0.02665608      -0.02676023
H       -0.60067028      -0.79760697       0.88553560       0.02111260      -0.02062712       0.03718390
C        0.19660410       2.06985253       1.22152059       0.00819967       0.00951346      -0.01395797
H       -0.66020753       1.57096003       1.67687922       0.00667968      -0.00414838      -0.04084941
H        1.05954727       2.10392773       1.89490899      -0.00714744       0.01498243      -0.00119001
H       -0.09948535       3.09825228       0.99115845       0.00506886       0.01464732       0.02029477
