15
Properties=species:S:1:pos:R:3:forces:R:3 Coordinates=T from=T ORCA-job=T run=T Energy:=T 116.9517299=T energy=-83991.48956679252 pbc="F F F"
C        0.13152172      -0.08093804       0.03059043      -0.00514979      -0.07887145       0.09802449
H        2.35123972       1.15800826       0.31882300      -0.00163245      -0.10130946      -0.08825896
Br      -2.28615561      -0.34154264       0.17189565       0.00256827      -0.17399034      -0.10300962
F        3.23686336       1.02006375       0.58980865       0.02488027       0.01737386       0.01384899
C        0.39916371       1.28823850      -0.02483825       0.10601167       0.00719031       0.02921127
H        0.26656703       1.82284537      -0.95929001       0.05941703      -0.00689501       0.07322018
C        0.36682592      -0.71950818      -1.25374279      -0.05713358       0.03769054      -0.03584429
N        0.66023353      -1.26029921      -2.26033807      -0.08808829       0.05882153       0.07934720
C        0.50713317      -0.99621624       1.18585542       0.03617060       0.04852061      -0.01904000
H        1.60176711      -1.04356969       1.22219266       0.02229293       0.01671020       0.02461432
H        0.14549188      -0.58655224       2.12487938      -0.06985190      -0.08094595      -0.05666078
H        0.11118466      -2.00311592       1.01603325      -0.00588319       0.23586905       0.03873729
N        0.22545741       2.15961729       1.09481293      -0.06431516       0.05072192      -0.06505747
O        0.21637822       3.37608708       0.84523173      -0.00450698       0.03178116      -0.00203251
O        0.11169790       1.69935191       2.23831602       0.04522053      -0.06266698       0.01289992
