17
Properties=species:S:1:pos:R:3:forces:R:3 Coordinates=T from=T ORCA-job=T run=T Energy:=T 142.4760286=T energy=-34307.114791329324 pbc="F F F"
C       -0.00181918      -0.15022791      -0.01104564      -0.03679252       0.01488593       0.07177194
H        1.59484728       1.25851211      -0.10392427      -0.03053252      -0.04941075      -0.02217323
Cl      -1.82081632      -0.18519454       0.05720967      -0.06076461      -0.00801534       0.01665382
Cl       3.66165144       0.81213469       0.73299219      -0.00684546       0.00097549       0.05779077
C        0.48959218       1.31424563      -0.03515740       0.00381768       0.00884521      -0.00717438
C        0.36298189      -0.83497357      -1.25625384       0.02893810      -0.03201394      -0.11992711
N        0.64258352      -1.42277731      -2.23719147      -0.02916703       0.07198690       0.09777965
C        0.54488490      -0.92037728       1.18431839       0.04342792       0.08696459       0.00165554
H        1.63723087      -0.86927856       1.14805556       0.01263604      -0.00475946       0.03397453
H        0.19916151      -0.44875907       2.10452173      -0.02073541      -0.05599027       0.02315845
H        0.19089863      -1.95263211       1.16097474       0.03839198      -0.00647591      -0.03892440
C        0.16697109       2.10573137       1.23739835       0.01222706      -0.01598360       0.00726208
H       -0.90352562       2.10403672       1.45659047       0.00291507       0.02342750      -0.02661588
H        0.72251526       1.69760574       2.08001555       0.07925500      -0.03424081      -0.01138627
H        0.50499022       3.13540858       1.10092909      -0.03202870      -0.01561091      -0.00794934
C       -0.04661737       2.00566707      -1.20654087      -0.02282616       0.00940564      -0.08266671
N       -0.49314031       2.58952845      -2.12467223       0.01808353       0.00600975       0.00677054
