18
Properties=species:S:1:pos:R:3:forces:R:3 Coordinates=T from=T ORCA-job=T run=T Energy:=T 98.7810425=T energy=-13712.194545715243 pbc="F F F"
C        0.39164910      -0.09844309      -0.55915739      -0.00768654       0.02551608      -0.00373578
H        0.79261550       1.70331913      -1.59647684      -0.04683131      -0.03711927      -0.08781263
F       -0.46349855      -0.45880796      -1.63089046       0.05505526      -0.00818290      -0.05418851
F        1.73548573       0.45752247       2.50132241      -0.08649900       0.02711098      -0.02292756
C        0.54058324       1.44395713      -0.55909783       0.01257225       0.05677373      -0.02067495
C        1.72823361      -0.65980474      -0.85849001      -0.04335963       0.00608207       0.04484257
N        2.82067725      -1.04511102      -1.05537509      -0.00730959      -0.09932004      -0.16812851
C       -0.12507614      -0.67250361       0.73342072       0.03618457      -0.01015917       0.05659345
H        0.61831400      -0.42143515       1.52384621      -0.09468463      -0.06074784       0.15661188
H       -1.08078212      -0.20913923       0.98781631      -0.03807096      -0.03335692      -0.05341316
H       -0.27041685      -1.75258375       0.63258400       0.06600144       0.00916412      -0.02757289
N        1.59456264       1.92242122       0.31100070       0.06236257       0.10561933       0.05747044
H        2.50369765       1.72286772      -0.09858755      -0.17668376      -0.04052998      -0.02636738
H        1.58695239       1.40923422       1.23367118       0.08969756       0.13347982       0.09633166
C       -0.78499039       2.12158920      -0.20000757      -0.01427051      -0.05923913       0.03498723
H       -1.64154132       1.65927373      -0.70286279       0.08041648      -0.03364593      -0.02192943
H       -0.94363168       2.07885339       0.88104559       0.06561941       0.02911026      -0.02974949
H       -0.73383406       3.17295034      -0.49576157       0.04748637      -0.01055519       0.06966305
