16
Properties=species:S:1:pos:R:3:forces:R:3 Coordinates=T from=T ORCA-job=T run=T Energy:=T 196.3384169=T energy=-24946.2179265743 pbc="F F F"
C        0.16480831      -0.14172851      -0.13177611       0.02263050      -0.00086058       0.02518403
H        1.32822456       1.50928440      -0.86875024      -0.00100665       0.00581207       0.01273735
Cl      -1.49078023      -0.50143591      -0.82701412      -0.01078580       0.00684661      -0.00890848
F        2.77580745       0.33599070       0.78617875       0.00990894       0.01858599      -0.00113273
C        0.48030027       1.41070344      -0.17776663      -0.00689969      -0.01550998       0.00159277
C        1.09893782      -0.85824522      -1.00993888      -0.01485790      -0.00449245       0.00515796
N        1.73840021      -1.49556998      -1.76331080      -0.02479221       0.01974348      -0.01209445
C        0.20747292      -0.73297447       1.27071433       0.00288935       0.00066898      -0.00892272
H        1.23985938      -0.59955023       1.60316514      -0.01674432      -0.02452265       0.00426508
H       -0.48995515      -0.19989687       1.91665791       0.01625222      -0.00319290      -0.01699855
H       -0.06193794      -1.79101125       1.21301346       0.01931375       0.01500878       0.02060005
N        0.81082364       1.90522542       1.15735308      -0.00341544      -0.00454088      -0.01946173
H        0.97126564       2.90494342       1.06850163      -0.01104957       0.00696515       0.00023121
H        1.74298595       1.43124577       1.28330404      -0.01031456      -0.01269648       0.01068216
C       -0.63324864       2.20628100      -0.72062139       0.01648673       0.00020784       0.00285143
N       -1.45432421       2.94416829      -1.12541017       0.01238464      -0.00802297      -0.01578338
