15
Properties=species:S:1:pos:R:3:forces:R:3 Coordinates=T from=T ORCA-job=T run=T Energy:=T 128.5701442=T energy=-79939.12892421048 pbc="F F F"
C        1.11045343       0.01217188       0.02029202      -0.03744336       0.00684565      -0.01777920
H        1.50267346       2.10122034       0.41187266       0.02322730       0.01037691      -0.02927873
F       -1.56833031       0.18664319      -0.19935914       0.01087773      -0.01067762       0.02617548
Br       3.12395319      -0.04308856      -0.13269567       0.03341061      -0.00648268       0.02237433
C        0.66108323       1.48702213       0.07630224       0.00485201      -0.00088301       0.01345430
H       -0.13924014       1.50493465       0.81937571      -0.00833735       0.00428936       0.00315811
C        0.65437369      -0.71041462      -1.17146547       0.02547328      -0.00697354       0.00952732
N        0.46660499      -1.40173293      -2.10468030      -0.00672260      -0.00657349      -0.01310676
C        0.70662250      -0.74020639       1.27942522      -0.00357539       0.01782797      -0.02761254
H        1.09230829      -1.76262869       1.27688321      -0.01206325       0.02149383       0.00124122
H        1.08064627      -0.21158226       2.16173751      -0.01170017      -0.02184581      -0.00455835
H       -0.38808788      -0.71892763       1.23040465       0.00097331      -0.00250743      -0.00382315
N        0.17732566       1.91274515      -1.23250519      -0.00915139      -0.00168858       0.02597411
H       -0.02010885       2.90774519      -1.18392057       0.00008107       0.00421415      -0.00194996
H       -0.72548745       1.41225856      -1.24988687      -0.00990176      -0.00741572      -0.00379618
