17
Properties=species:S:1:pos:R:3:forces:R:3 Coordinates=T from=T ORCA-job=T run=T Energy:=T 56.0755598=T energy=-91238.84274787163 pbc="F F F"
C       -0.05266017      -0.12889839      -0.05217361      -0.01648847       0.02680840      -0.02659781
H        1.57812114       1.16421994      -0.33086984       0.03887191      -0.02786236       0.06041955
Br      -2.03428854      -0.07503458       0.08809160       0.01431382      -0.01041159       0.04532210
Cl       3.56105191       1.18720126       1.34615874       0.07474255      -0.01767115       0.06560557
C        0.51784363       1.30358604      -0.08023244      -0.00548914       0.02106170      -0.05483939
C        0.22872428      -0.80237734      -1.32143887      -0.02432732       0.05400640      -0.00639879
N        0.48071712      -1.38193490      -2.31326840       0.00751169      -0.00765293      -0.01183810
C        0.50672655      -0.92541818       1.11902063      -0.03088585      -0.02568760      -0.00826915
H        1.59744585      -0.81966865       1.11372057      -0.02553011      -0.04047883       0.01611747
H        0.12239208      -0.51150324       2.05058919       0.02691240       0.09035924      -0.01402828
H        0.21391308      -1.97307716       1.04536928       0.02979766      -0.07169225      -0.01429625
N        0.37731725       1.89133291       1.24859627      -0.02978610      -0.01527569      -0.00365418
H        0.35463270       2.89884138       1.13095820       0.04949443      -0.02187571      -0.00741280
H        1.25907151       1.69095308       1.72845940      -0.00499966       0.07102423      -0.01648398
N       -0.08755818       2.06347677      -1.15329103      -0.05668177      -0.01116421      -0.06655232
H        0.53355502       2.81703095      -1.42020379       0.01881507       0.01687653       0.04907363
H       -0.96298541       2.46249007      -0.83444589      -0.06627113      -0.03036418      -0.00616727
