16
Properties=species:S:1:pos:R:3:forces:R:3 Coordinates=T from=T ORCA-job=T run=T Energy:=T 89.3702246=T energy=-31802.412729728945 pbc="F F F"
C       -0.03535719      -0.12129515      -0.02144855      -0.02173748       0.00783570       0.01401227
H        1.53265663       1.28177139      -0.23558456      -0.01267555       0.00059851       0.00577959
Cl      -1.85999401      -0.16075281       0.12092949      -0.05115587       0.02846230      -0.01989525
Cl       3.70879658       0.76154503       1.15951260       0.00086935       0.00205131       0.01675034
C        0.45169515       1.33071624      -0.05696156      -0.01552875       0.00473722      -0.00742783
H       -0.02791495       1.82711839      -0.90682311      -0.03244214      -0.00298993      -0.00767189
C        0.25515516      -0.76616243      -1.30869185       0.02716383       0.02449321      -0.02123584
N        0.48635160      -1.27127546      -2.34537669      -0.00896170       0.00049728       0.03030226
C        0.55045892      -0.92919094       1.12589600       0.01688271       0.00592525       0.01621197
H        1.63842438      -0.81234122       1.10983365       0.03651802      -0.02530282      -0.00183909
H        0.18345569      -0.53415639       2.07382416      -0.01771048       0.01834184       0.00785987
H        0.25618365      -1.97769769       1.04196204       0.03415945       0.00011765       0.00721930
C        0.22466528       2.10772537       1.23742488       0.01274905      -0.00501576      -0.00943010
H       -0.80000002       2.01260012       1.60922262       0.01416614      -0.01974403      -0.02695405
H        0.93659900       1.78429690       1.99743752       0.00422904      -0.03676376      -0.01374004
H        0.41831412       3.16748866       1.05065337       0.01347439      -0.00324397       0.01005849
