13
Properties=species:S:1:pos:R:3:forces:R:3 Coordinates=T from=T ORCA-job=T run=T Energy:=T 112.6794952=T energy=-30736.17265725321 pbc="F F F"
C        1.26385314      -0.05597382      -0.07392824       0.08287411       0.04972065       0.03706050
H        0.79793669       1.88484675       0.67140285      -0.07417635      -0.01072647      -0.04715697
Cl      -2.20838420       0.91741616       1.84338309      -0.00367690      -0.01572671      -0.01133425
Cl       3.03720309       0.24903258       0.25946939       0.00285044      -0.00979038      -0.02892200
C        0.57623220       1.29502043      -0.22027596       0.02368532      -0.00035172      -0.04593485
H       -0.50847284       1.16925416      -0.24159126       0.01850987      -0.06707361       0.00666012
H        0.93191532       1.82186283      -1.10761306       0.05063775       0.00745368      -0.02292479
C        1.24100403      -0.84905384      -1.31087817      -0.05934766      -0.01130123      -0.11763207
N        1.21661285      -1.51482270      -2.28162335      -0.01511257       0.11901004       0.10707310
C        0.69593262      -0.87114314       1.07657896      -0.01643571      -0.01193239      -0.01181062
H        1.29636270      -1.77103942       1.22494105      -0.05401854      -0.03492828       0.05198040
H        0.67698671      -0.25770926       1.97530342       0.03986542      -0.01632405       0.07155820
H       -0.34540229      -1.11864073       0.86329128       0.00434483       0.00197049       0.01138323
