16
Properties=species:S:1:pos:R:3:forces:R:3 Coordinates=T from=T ORCA-job=T run=T Energy:=T 104.3207729=T energy=-9513.153952449582 pbc="F F F"
C        0.99663409      -0.10752399      -0.13222237       0.00747865      -0.02417768       0.01606601
H        1.46022800       1.86283466       0.55182169      -0.00081128       0.01505348      -0.00121256
F       -1.70126304       0.31055343       0.94140296       0.00201019      -0.01717925       0.01427769
H        2.01971252      -0.21575586      -0.52833010       0.00674884       0.01010483      -0.00624526
C        0.64536474       1.38602381      -0.01213785      -0.00180628      -0.01825097       0.01493440
H       -0.29474019       1.38693489       0.56432762      -0.02632611      -0.02060854       0.00308910
C        0.13516898      -0.78870143      -1.10941780      -0.00213777       0.00571652      -0.01119505
N       -0.42679851      -1.37697679      -1.95774817      -0.02848088      -0.00174453      -0.01110837
C        0.86488931      -0.79516562       1.23428766      -0.00512139      -0.00362187       0.01075906
H        1.54488590      -0.31508686       1.94831316      -0.00450544       0.00262486       0.00224970
H       -0.18718660      -0.62916611       1.51731469       0.00841447       0.03078530       0.00372074
H        1.11270133      -1.86130397       1.17809107       0.00557531       0.01337727      -0.01500075
C        0.44152692       2.07268378      -1.35795966       0.01761555      -0.00042571       0.00473224
H        1.27124232       1.89685953      -2.05471937       0.01385180      -0.00384400      -0.01452228
H       -0.47745757       1.69959325      -1.81698500       0.01775326       0.00400487      -0.00940714
H        0.33586182       3.15530728      -1.23001851      -0.01025892       0.00818542      -0.00113753
