15
Properties=species:S:1:pos:R:3:forces:R:3 Coordinates=T from=T ORCA-job=T run=T Energy:=T 124.9872581=T energy=-12889.063742747598 pbc="F F F"
C        0.30496854       0.04222437       0.13409683      -0.00032428       0.01643446       0.04964888
H        1.63165123       1.67846560       0.06600373      -0.02922457       0.03343532       0.03011634
F       -1.08886505      -0.17894218       0.12034668       0.02545921       0.00821946      -0.01604380
H        0.80102835      -1.75482055      -0.97265145      -0.00402542       0.01953073      -0.04890096
C        0.54293441       1.55427092       0.11777820      -0.00112022       0.01463584       0.04275996
C        0.94910142      -0.61794171      -1.11841580      -0.02993052       0.01565660      -0.04177492
N        1.54755673      -0.04458580      -2.05181606      -0.02729698      -0.06525580       0.05198114
N        0.75118690      -0.54267541       1.38912032       0.00371948      -0.01596399       0.02141186
H        1.76816498      -0.55889044       1.36418219      -0.00439485       0.05452874      -0.03108966
H        0.46602657      -1.51902894       1.35205002       0.00699864      -0.03751807      -0.00225460
C        0.04439975       2.18138976       1.35855198       0.04287742      -0.02242812      -0.06175424
N       -0.35977391       2.69472246       2.33600545       0.00792008       0.00623992      -0.07308611
N       -0.00940999       2.21712537      -1.06689906      -0.08897602      -0.18114218      -0.01108104
H       -0.98571390       1.92919428      -1.11690564       0.08713919       0.04203904      -0.01598748
H        0.48088397       1.70101226      -1.81623739       0.01117884       0.11158804       0.10605460
