14
Properties=species:S:1:pos:R:3:forces:R:3 Coordinates=T from=T ORCA-job=T run=T Energy:=T 77.4139861=T energy=-26929.66339085499 pbc="F F F"
C        0.09897937      -0.14642834       0.05355572      -0.00696751       0.01282403       0.01998815
H        1.74311418       1.13244376       0.26193773      -0.00255596       0.02414926       0.03197570
Cl      -1.76477879      -0.08846328       0.14861610      -0.01018505       0.01481982       0.00074835
F        2.96324330       0.07103099       0.75868874      -0.00596329       0.02497024       0.02142072
C        0.65140330       1.28098831       0.05861809       0.02805217      -0.00318824      -0.03925167
H        0.44225684       1.78845686      -0.87904863      -0.01813206       0.00090996      -0.02907420
C        0.33920184      -0.69356150      -1.30247294      -0.01277137      -0.00014421      -0.03854872
N        0.57796461      -1.18233447      -2.34639058      -0.01233100       0.00332493      -0.00483726
N        0.64354330      -0.91828911       1.09017789       0.00646808      -0.01665827       0.01646443
H        1.68146958      -0.63885982       1.12353925       0.01501919      -0.02097522       0.01905786
H        0.52358280      -1.90481705       0.89556240      -0.00087371      -0.02058023      -0.00116727
N        0.07197920       2.14457224       1.11603003       0.02538546       0.01987302      -0.01090391
O       -0.30296390       3.26897813       0.76307173      -0.00828294      -0.02883143      -0.00324081
O        0.03833437       1.72878328       2.26939450       0.00313800      -0.01049367       0.01736865
