14
Properties=species:S:1:pos:R:3:forces:R:3 Coordinates=T from=T ORCA-job=T run=T Energy:=T 100.5226718=T energy=-26929.798950760054 pbc="F F F"
C        0.07978067      -0.12723566      -0.03168668       0.03120794      -0.00599782      -0.01404923
H        1.76025974       1.13754140      -0.20951401       0.02986542       0.01600462       0.02380698
Cl      -1.77092302       0.03213890       0.13624819      -0.00532469      -0.01824205       0.01815375
F        2.96215871       0.22790207       0.69852459      -0.00070572      -0.02256965       0.01888162
C        0.66230750       1.27498341      -0.12399681      -0.00041810       0.00923836      -0.01966963
H        0.45115126       1.79297118       0.80822530      -0.02042128      -0.00133532       0.00008062
C        0.25767740      -0.93521334      -1.25540166      -0.00139342       0.00244221       0.01000821
N        0.45388104      -1.70767780      -2.12103243      -0.02577205      -0.01448021      -0.03506738
N        0.64850104      -0.72379933       1.11480426       0.00395119       0.01449909      -0.00279443
H        1.69557004      -0.43479450       1.09290712      -0.00117899      -0.01407300       0.00562875
H        0.53839665      -1.73057970       1.07136932       0.00912805       0.02288396       0.01063756
N        0.11205654       2.09944879      -1.21861499      -0.04681717      -0.01599530       0.00365555
O       -0.14565866       3.27730521      -0.95954734       0.01200607       0.01831563      -0.00475631
O       -0.01593892       1.58619938      -2.33012488       0.01587276       0.00930948      -0.01451606
