15
Properties=species:S:1:pos:R:3:forces:R:3 Coordinates=T from=T ORCA-job=T run=T Energy:=T 120.1221679=T energy=-15587.24928512718 pbc="F F F"
C        1.18606976       0.10722598      -0.17338509      -0.01023332       0.00093867      -0.00439436
H        1.57586138       2.02023580       0.51795692       0.00493309       0.03063713       0.01853239
F       -1.03341749      -0.64449031       1.69020425       0.00226623       0.00587253      -0.01126747
F        2.38350195       0.14212100      -0.90915350      -0.02763686      -0.02490260      -0.00599530
C        0.73293274       1.57283659      -0.02334180      -0.01068853      -0.00689817       0.02914704
C        0.23666137      -0.66925547      -1.02789506       0.02548182      -0.01152765      -0.02352234
N       -0.44397251      -1.32514903      -1.72758359       0.03320516       0.03037469       0.02048822
N        1.44446753      -0.45760116       1.10246975      -0.00312648      -0.00069628      -0.02765316
H        1.83627482      -1.38148384       0.94109156      -0.01587208      -0.01570814       0.01403779
H        0.47983142      -0.60110143       1.53960148       0.01239136       0.03187329      -0.02554911
N       -0.53550960       1.73858622       0.66783075      -0.00491764      -0.01793118      -0.00644184
H       -0.36698331       2.26858080       1.51259996       0.01670409       0.00302900      -0.00657827
H       -0.89370385       0.80941997       0.99113458      -0.00737463       0.01055977       0.01625683
C        0.70156537       2.22282078      -1.35746599       0.00056190      -0.01939076       0.00056052
N        0.68963042       2.79001410      -2.38693423      -0.01569412      -0.01623028       0.01237906
