16
Properties=species:S:1:pos:R:3:forces:R:3 Coordinates=T from=T ORCA-job=T run=T Energy:=T 135.2468606=T energy=-18636.801822627483 pbc="F F F"
C        1.18298579       0.14605103      -0.13615934      -0.01506493      -0.04102896      -0.04687891
H        1.52482701       2.12519714       0.46886877       0.01122294       0.01250218      -0.01043337
F       -1.15677426      -0.67032563       1.52755429       0.01173481      -0.02258102       0.00227606
F        2.43003198       0.27168937      -0.78106596      -0.02742082      -0.06170221       0.04840669
C        0.66790605       1.58856421       0.05834626       0.04955044      -0.06481397       0.01855486
C        0.37660406      -0.66951287      -1.09679003       0.01683109       0.13707484       0.06448068
N       -0.13437938      -1.37076892      -1.89031349      -0.01492186      -0.03594370       0.06297355
N        1.36769694      -0.45121030       1.13882783      -0.02365654      -0.00218419      -0.07653648
H        1.78849389      -1.36195458       0.97263102      -0.00759594       0.00294049       0.06188630
H        0.37635622      -0.62119678       1.49985460       0.08008039       0.00353875      -0.06136960
N       -0.52325079       1.74828189       0.80360930       0.02924779       0.00117076       0.00522428
H       -0.29717803       2.17835974       1.68996947      -0.00983530       0.02454276      -0.06197186
H       -0.96893973       0.82603090       1.01976096      -0.04349330      -0.03234121      -0.04500013
N        0.52355468       2.18934830      -1.34609752      -0.07622235       0.00244971       0.04471821
O        1.45030256       2.89224423      -1.75872819      -0.02913527       0.02660154       0.01282251
O       -0.50165699       1.92585228      -1.96873797       0.04867884       0.04977423      -0.01915280
