14
Properties=species:S:1:pos:R:3:forces:R:3 Coordinates=T from=T ORCA-job=T run=T Energy:=T 80.8149606=T energy=-80375.83136585102 pbc="F F F"
C        0.09052214      -0.02835748      -0.08051532      -0.04147160      -0.01502736      -0.01781320
H        0.18135761       1.87847052      -1.08864337       0.00144867      -0.04193841       0.01899656
Br      -1.67619485      -0.57039382      -0.92187611       0.02989270       0.00891387       0.00144162
F        2.65904817      -0.01941885       1.33056070       0.01953841       0.01489272       0.00414528
C        0.09479489       1.51965333      -0.05522884       0.02206635       0.00723017       0.02475130
H       -0.88829725       1.81894362       0.32100388       0.02143472       0.00357365      -0.01017921
C        1.08319511      -0.55570712      -1.04532520      -0.01059831      -0.02727999       0.00426362
N        1.83449388      -0.99053309      -1.84078154      -0.02987894       0.02366456       0.00245529
N        0.17553120      -0.56406387       1.23582105       0.02100069      -0.00017383      -0.03508257
H        1.21292287      -0.37778449       1.47692358       0.01534830       0.00351978       0.02461367
H        0.08070666      -1.57471620       1.17564613      -0.00289932       0.01560974      -0.01826198
N        1.13074588       2.10216455       0.78175486       0.01103447       0.02382271       0.00505388
H        1.95928890       1.48553436       0.77932472      -0.03644948      -0.03200409       0.00565995
H        0.81021476       2.01983852       1.74049546      -0.02046671       0.01519647      -0.01004423
