17
Properties=species:S:1:pos:R:3:forces:R:3 Coordinates=T from=T ORCA-job=T run=T Energy:=T 71.4020644=T energy=-21245.71314990458 pbc="F F F"
C        0.27537026      -0.03720212       0.10810595       0.17879804      -0.05051713      -0.02840224
H        1.72554202       1.46877147       0.27780608      -0.19149190      -0.04290923      -0.04820569
Cl      -1.50907656      -0.27492508       0.02678096       0.17560384       0.04533221      -0.15163466
H        2.12311500      -0.38974994      -0.91681486       0.01006768      -0.20421227      -0.02456228
C        0.62450711       1.44871765       0.15567322      -0.02746400       0.11587804       0.04446687
C        1.01325982      -0.66596516      -1.17642557      -0.33432295       0.06039445       0.24401914
N        0.55241950      -1.25263793      -2.15135396       0.08700695      -0.02075387      -0.16517334
N        0.71381384      -0.67476691       1.35647328       0.00217914       0.03546595      -0.00359330
H        1.73326488      -0.64803135       1.32098501       0.05227714      -0.00392660      -0.05378205
H        0.46927588      -1.65749154       1.25242307       0.02135969      -0.04502792       0.03124140
C       -0.00420037       2.18399873       1.32771558      -0.04350418       0.00733176       0.06123070
H       -1.08758374       2.19175691       1.17495601      -0.00988843       0.08589017       0.13280497
H        0.19893366       1.67347845       2.27002398       0.06517582       0.02247282      -0.01859976
H        0.35713691       3.21856899       1.36870292      -0.00382246      -0.02572270       0.02819571
N        0.28450393       2.15281223      -1.08770049      -0.37702420       0.15521408      -0.09615465
H       -0.56048600       2.70214481      -0.89084690       0.31109861      -0.51356593      -0.44725029
H        0.08401386       1.46691081      -1.82999427       0.08395122       0.37865616       0.49539946
