15
Properties=species:S:1:pos:R:3:forces:R:3 Coordinates=T from=T ORCA-job=T run=T Energy:=T 150.6770977=T energy=-29435.231640081838 pbc="F F F"
C       -0.02217553      -0.08347400       0.00849740      -0.06239649      -0.06502599       0.00569943
H        1.67089937       1.22914659      -0.12972888       0.05969595       0.00129172      -0.01128109
F       -1.40861023       0.04420427       0.07420348      -0.05587298      -0.02222084       0.01512761
Cl       3.50804881      -0.01529302       0.43198004      -0.04170824       0.02879224       0.04044818
C        0.57662615       1.33228921      -0.02740305      -0.00441246      -0.07797431       0.00399967
C        0.23457276      -0.83929485      -1.24624711      -0.00562985       0.01656749       0.02337575
N        0.38810887      -1.56818882      -2.15564783      -0.02099888      -0.02456915      -0.05705090
N        0.45791036      -0.72407500       1.17798384       0.13037875       0.03570383      -0.05657330
H        1.47962513      -0.60301525       1.18317447       0.13784228      -0.01841077       0.11736644
H        0.27402895      -1.71975120       1.13419477      -0.11203970      -0.01972923      -0.01740246
C        0.21998922       2.06263333       1.18260771       0.02430331       0.02844323      -0.00147018
N       -0.04383869       2.69329353       2.13775966       0.00799632      -0.01458438       0.03134926
N        0.03595855       2.05855235      -1.22796542      -0.01387517       0.04016242       0.00682051
O       -0.84778095       2.89225276      -1.04744202      -0.03795107       0.05638146      -0.10960724
O        0.51977722       1.73362009      -2.30947707      -0.00533178       0.03517227       0.00919831
