16
Properties=species:S:1:pos:R:3:forces:R:3 Coordinates=T from=T ORCA-job=T run=T Energy:=T 203.3409015=T energy=-15151.072296648184 pbc="F F F"
C        0.04028900      -0.12309063       0.14344957       0.00374255      -0.07753294       0.05222655
H        1.62387762       1.23791962       0.13814308       0.04254602      -0.01603084      -0.00667869
F       -1.34557143      -0.14518310       0.41759423      -0.03194661       0.02417211      -0.04008028
F        2.96518271       0.13525147       0.29636903       0.01753347       0.00658308      -0.04602464
C        0.52003957       1.33631070       0.02922361      -0.01388041      -0.06198689      -0.00162395
C        0.12357011      -0.79507860      -1.19148298       0.00751909      -0.05817461      -0.05157495
N        0.15817631      -1.35789132      -2.22438486       0.04056508       0.00125430       0.06981951
N        0.75321026      -0.75976481       1.17819728       0.05063855      -0.05765178      -0.01936835
H        1.78053120      -0.54335001       0.96306432      -0.01131642       0.07098876       0.06413403
H        0.58917254      -1.76148388       1.16548173      -0.06510644       0.05518183      -0.06478911
C       -0.04044761       2.07933543       1.15451366      -0.03928735       0.07322308       0.06068252
N       -0.50233272       2.73565302       2.01456395       0.04766795      -0.00673073      -0.04345246
C        0.15016088       1.99268437      -1.30318447       0.00070363       0.02736777       0.01070882
H        0.73924017       1.54222166      -2.10297721      -0.01504769      -0.02992612      -0.03051207
H       -0.91256116       1.86777007      -1.52675790      -0.02757714       0.01421925      -0.01074792
H        0.37824255       3.06013599      -1.28248305      -0.00675429       0.03504371       0.05728098
