15
Properties=species:S:1:pos:R:3:forces:R:3 Coordinates=T from=T ORCA-job=T run=T Energy:=T 17.1183708=T energy=-74299.59160694148 pbc="F F F"
C        0.35551025      -0.05647580      -0.07171173      -0.02125416      -0.01417427       0.04285988
H        1.68845035       1.49065932      -0.31479734      -0.02190116       0.01445180       0.00823988
Br      -1.51080733      -0.41387012       0.55699360       0.00522013       0.01393505      -0.04392283
H        3.31119414      -0.19160783       0.34649283      -0.00103485       0.01233409      -0.02184165
C        0.59880002       1.43822150      -0.17594498      -0.00709435      -0.02045954       0.00864729
H        1.00590882      -0.44273034       0.71597719       0.03779411       0.00446134       0.00613824
H        0.38918778       1.89638669       0.79785929       0.00084425      -0.02309867      -0.01303330
C        0.63487020      -0.83657466      -1.33761569      -0.00422896       0.00278904       0.02533156
H        0.03265797      -0.50376290      -2.18749248       0.01562197       0.01398999       0.01550892
H        1.70705799      -0.69361496      -1.51594498      -0.01524974      -0.00710539      -0.03892548
H        0.46171805      -1.90423277      -1.18124506      -0.01964457       0.00869718       0.01143562
C       -0.16927797       2.17754413      -1.26813157       0.01574218      -0.00242843       0.01337647
H        0.06579641       1.79498853      -2.26541772       0.00415584       0.00125867       0.02935917
H       -1.25094604       2.09816285      -1.11609272       0.03575692      -0.00369966      -0.02906732
H        0.09740932       3.23978634      -1.25546861      -0.02472760      -0.00095122      -0.01410646
