14
Properties=species:S:1:pos:R:3:forces:R:3 Coordinates=T from=T ORCA-job=T run=T Energy:=T 13.8423355=T energy=-23988.844646943475 pbc="F F F"
C        0.14478423      -0.13815290      -0.00838607      -0.00306414       0.02440116       0.00376129
H        1.65700682       1.29993717      -0.12847815       0.00455513      -0.00767937       0.00868656
Cl      -1.66272991      -0.40640056       0.13130719       0.00073298       0.00051649       0.00583251
F        2.99396962       0.73690917      -0.37604940       0.00232247      -0.00999106      -0.02939009
C        0.48811225       1.32298826      -0.00785114      -0.01236346       0.01386467       0.00863425
H        0.56594990      -0.59624506       0.88458821       0.01301250       0.00550652      -0.01829636
H       -0.00770488       1.87371874      -0.80697989       0.00217857       0.00290418      -0.00533123
C        0.67440187      -0.79176385      -1.26753331       0.00067520      -0.00372062       0.01107475
H        0.17400386      -0.37661709      -2.14780959       0.02353520      -0.01437676      -0.00874647
H        1.74148602      -0.53876923      -1.28089429       0.00298098       0.00415117      -0.00513977
H        0.51309195      -1.87201411      -1.24954982      -0.00670737      -0.01462593      -0.00257451
N        0.13658406       1.99302421       1.24955107      -0.03805318       0.00407032       0.00550393
O       -0.26037871       3.16268285       1.19117879       0.01990526       0.00115597      -0.00013245
O        0.30676292       1.38094239       2.30740640      -0.00971015      -0.00617675       0.02611759
