15
Properties=species:S:1:pos:R:3:forces:R:3 Coordinates=T from=T ORCA-job=T run=T Energy:=T 224.0680466=T energy=-13998.306773253651 pbc="F F F"
C        0.08512516      -0.06124490      -0.25203478       0.00808731      -0.01755476      -0.04423988
H        1.51090035       1.48286913      -0.91853917       0.01362308      -0.03183774       0.03916738
F       -1.27348560      -0.03524540      -0.67173637       0.06669715      -0.00733328       0.06822153
H        2.31658777       0.22826646       0.83767471      -0.06424366       0.11016287       0.04888363
C        0.64150825       1.39027377      -0.27591136      -0.13072646      -0.11143726      -0.18032346
H        0.07346375      -0.40126338       0.77856435       0.02185257       0.00877003      -0.02803250
C        0.82001247      -1.02850985      -1.17515463      -0.07020492      -0.08240364      -0.04661677
H        0.19136985      -1.21506147      -2.05427573       0.04869301       0.06655031       0.02596510
H        1.78553696      -0.63612320      -1.48321714      -0.00472284      -0.02863953       0.04386584
H        1.00218749      -1.97593125      -0.66059738      -0.03118640       0.06370270      -0.06321643
C        0.93601742       1.91765778       1.04815174       0.00584378       0.44396177       0.45569191
N        0.84651758       2.66392684       1.97359222       0.07457356      -0.35644376      -0.31439820
N       -0.42099387       2.27017488      -0.98979877      -0.04414503       0.05438036       0.01153093
O       -1.34660982       2.75189947      -0.34065714       0.20764988      -0.09488335      -0.17731130
O       -0.24462777       2.41795112      -2.20468056      -0.10179104      -0.01699472       0.16081223
