15
Properties=species:S:1:pos:R:3:forces:R:3 Coordinates=T from=T ORCA-job=T run=T Energy:=T 113.0582335=T energy=-77240.81247025123 pbc="F F F"
C        0.10796608      -0.09275182      -0.20329479      -0.01683937       0.00314617       0.00921590
H        1.67455354       1.27810790      -0.25699954       0.01010804      -0.03329614       0.00211622
Br      -1.84945195      -0.20331160      -0.08572619      -0.02561250      -0.04039092       0.01218646
H        2.62431000       0.58586196       1.60215058      -0.01732877       0.00795319      -0.01843243
C        0.57709683       1.35779153      -0.11409979       0.00752492       0.00192073       0.00282792
H        0.49236727      -0.58548074       0.69182367       0.00953773       0.04292862       0.01652187
C        0.58766009      -0.79073858      -1.46054660       0.00150029      -0.00676317      -0.00505240
H        0.20555480      -1.81147052      -1.51282344      -0.00394638      -0.02822506       0.00690103
H        0.26605116      -0.25378842      -2.35644390      -0.01401540      -0.00447737      -0.02324922
H        1.68057091      -0.82855076      -1.42967076       0.02339718       0.02757477      -0.02184405
N        0.30704077       1.89761694       1.21371243       0.00198040      -0.00256158       0.00332557
H        0.46870210       2.90175514       1.17552676       0.01600423      -0.01001266       0.03195897
H        1.12344586       1.49606610       1.73509977      -0.01186012       0.01353458       0.00668048
C       -0.00180012       2.17734234      -1.18041916      -0.01851485       0.02268612      -0.00830292
N       -0.44920749       2.84449053      -2.04005905       0.03806460       0.00598273      -0.01485338
