15
Properties=species:S:1:pos:R:3:forces:R:3 Coordinates=T from=T ORCA-job=T run=T Energy:=T 152.0916347=T energy=-12646.100186610323 pbc="F F F"
C        0.87152716       0.01020845       0.00311307       0.00586027      -0.01078715      -0.01326114
H        1.74806150       1.87417904      -0.52242658       0.00291157      -0.01274831      -0.00149049
F       -1.85364615      -0.11494104      -0.54817801      -0.00999245       0.00352163      -0.00571772
F        2.05083832      -0.24377147       0.74359501      -0.00268745       0.00574734      -0.02071972
C        0.77265076       1.53268164      -0.14096184       0.00575585      -0.01601847      -0.00205450
H        0.01319446      -0.35118183       0.56568769      -0.00043597      -0.01315386       0.00909436
C        0.91263364      -0.69353781      -1.33100750       0.00093060      -0.00040395       0.00973691
H       -0.12398451      -0.69293915      -1.67280669       0.03703194       0.00255698      -0.03127395
H        1.57546870      -0.19036344      -2.04247238      -0.01593530      -0.02216751       0.01744811
H        1.25216348      -1.72435203      -1.18280346      -0.01071154       0.02659214       0.00934226
C        0.64202443       2.12990469       1.21481725      -0.03315995       0.01874295      -0.01793358
N        0.52139746       2.66024610       2.25808790       0.00653958       0.00510887      -0.01292271
N       -0.29510489       1.87702663      -1.06365218       0.01033766       0.00266940       0.01488681
H       -0.59304538       2.83169831      -0.90235795      -0.01724284      -0.01549628       0.02172504
H       -1.08856899       1.19081192      -0.88637434       0.02079803       0.02583621       0.02314031
