14
Properties=species:S:1:pos:R:3:forces:R:3 Coordinates=T from=T ORCA-job=T run=T Energy:=T 24.1071822=T energy=-23988.844954879383 pbc="F F F"
C        1.00488507      -0.05515992       0.04857091      -0.03591461      -0.00157612      -0.01518975
H        0.92760878       1.97960278      -0.70024101       0.01095750       0.01125940       0.02874839
F       -1.83229389       0.34653875      -0.85351298       0.00768360       0.00042406       0.00018681
Cl       2.77224651      -0.03155029       0.52488760       0.00045118      -0.00232850      -0.00143792
C        0.42121131       1.32683898       0.01108043      -0.00330349       0.01024131       0.00404897
H        0.50516582      -0.62220418       0.83104003       0.02062445      -0.00479169       0.03470663
H       -0.68762877       1.11537685      -0.30530767      -0.00054816      -0.00819968      -0.00858205
C        0.83425884      -0.72545107      -1.29898999       0.00835177      -0.01154993      -0.01484114
H       -0.23992748      -0.65387057      -1.51210089       0.01342571       0.01120791       0.01487039
H        1.40895376      -0.19362078      -2.06292485      -0.01012443       0.00859439      -0.01813270
H        1.17668800      -1.76248853      -1.26896691      -0.00730292      -0.01733120       0.01166894
N        0.45679228       2.00485652       1.31401903      -0.00257455       0.01234135      -0.02237764
O        0.62861313       3.22931886       1.31928324      -0.00525509      -0.00251899       0.02009501
O        0.25527665       1.33772259       2.33284306       0.00352903      -0.00577230      -0.03376394
