14
Properties=species:S:1:pos:R:3:forces:R:3 Coordinates=T from=T ORCA-job=T run=T Energy:=T 15.4882209=T energy=-87231.86782586332 pbc="F F F"
C        0.30163429      -0.03098595      -0.09873853       0.01063689      -0.01353479      -0.01951926
H        1.62303102       1.56938147      -0.35269192      -0.00688766      -0.01662385      -0.00435419
Cl      -1.43837078      -0.30917138       0.40060622      -0.01293967      -0.00589145       0.00531458
Br       3.85479075      -0.10998232       0.48028046       0.00500507       0.01894822       0.00399857
C        0.55074182       1.46354100      -0.16505036       0.01218762      -0.01690490       0.02113462
H        0.91391031      -0.44248199       0.70407915      -0.03519125       0.02199519      -0.00544729
H        0.34671309       1.88535266       0.83001660       0.03465650       0.01887830       0.00244852
C        0.58214395      -0.76387110      -1.39107057       0.01400033      -0.00829211      -0.02576582
H        0.01108279      -0.33396265      -2.21452388      -0.00250021      -0.00072082       0.00673305
H        1.65428062      -0.66974796      -1.58333267      -0.00781405       0.02831593       0.01003055
H        0.34778479      -1.82627942      -1.29032725      -0.01588476       0.00880887      -0.00094117
N       -0.21365481       2.10875074      -1.23932174       0.01467227      -0.01872591       0.02641495
H        0.12310553       3.05816403      -1.34702901      -0.00383819      -0.01122218      -0.00720686
H       -1.18531312       2.16519283      -0.95567647      -0.00610290      -0.00503050      -0.01284025
