17
Properties=species:S:1:pos:R:3:forces:R:3 Coordinates=T from=T ORCA-job=T run=T Energy:=T 58.9595018=T energy=-92349.81105664012 pbc="F F F"
C        0.84563125       0.00391126       0.00583106       0.05284048       0.01621432       0.10627218
H        1.89791495       1.83351587      -0.40740982       0.09744730       0.02426995      -0.02009746
Br      -2.68725667      -0.82379431      -0.52196314       0.02166904       0.02027189      -0.00920878
Cl       2.31239734      -0.53818000       0.94372451      -0.21950352       0.11528156      -0.12040542
C        0.88140469       1.52895028      -0.15730055       0.05229074      -0.02688233       0.04136227
H       -0.02527160      -0.30230148       0.58902400      -0.06003373       0.10005506       0.01446504
C        0.79010952      -0.71649707      -1.32506076      -0.00496416      -0.02130531       0.02018838
H       -0.18552239      -0.51677260      -1.76342138      -0.05660230      -0.02975032      -0.09744576
H        1.60255559      -0.43668517      -1.99874886       0.10407620       0.13923141       0.01366502
H        0.83640955      -1.78970002      -1.15533288       0.00660422      -0.11681505       0.06141896
N        0.61981187       2.21164757       1.16348371      -0.05437887       0.01809138       0.13041468
O       -0.54701862       2.46583141       1.46270509       0.10692532      -0.16429948      -0.00161130
O        1.59764334       2.48860467       1.86060668       0.13438636       0.01221489      -0.01469527
C       -0.13883214       2.05312023      -1.15139002      -0.03756463      -0.03695154       0.00037612
H        0.14796962       1.77129061      -2.16530174       0.00652306      -0.01251067       0.00010965
H       -1.11593900       1.62997341      -0.92281626      -0.13163287      -0.00331971      -0.08612421
H       -0.18328774       3.14407528      -1.08908963      -0.01808265      -0.03379605      -0.03868411
