17
Properties=species:S:1:pos:R:3:forces:R:3 Coordinates=T from=T ORCA-job=T run=T Energy:=T 37.3053583=T energy=-88297.96158570237 pbc="F F F"
C        0.20760284      -0.08796878      -0.14445878      -0.00595461      -0.00473821       0.00466499
H        1.56148315       1.42865919      -0.51932484      -0.02019815       0.00771249      -0.02089886
Br      -1.71159526      -0.45285217       0.19329825       0.03116617       0.00778057       0.00761617
Cl       3.30855564       0.30996311       1.37463384      -0.00246041      -0.00527163       0.00175540
C        0.50620612       1.40901415      -0.20522679      -0.00635045      -0.00562209       0.02296510
H        0.71928057      -0.49280910       0.72872052       0.01180148       0.02821039       0.00010930
C        0.63418875      -0.85249420      -1.38353597       0.00846516      -0.00596783      -0.01269145
H        0.06788666      -0.54316030      -2.26530905       0.00474139      -0.00396906      -0.02101582
H        1.69993613      -0.67066994      -1.54649710       0.02283849       0.00665424       0.02141650
H        0.49034992      -1.92500012      -1.23964543      -0.02491274      -0.00883298      -0.01668733
N        0.36089475       1.97738726       1.13437765      -0.00620308       0.00691056       0.03642027
H        0.55828517       2.97273367       1.07607337      -0.00841045      -0.00966625      -0.04186089
H        1.13401395       1.58172285       1.67126445      -0.00270235      -0.01331196       0.03053352
C       -0.33802454       2.18470260      -1.20599770       0.00489085      -0.00527646      -0.00001191
H       -0.22776890       1.78500215      -2.21764025      -0.04098002      -0.00168039      -0.00974801
H       -1.39150614       2.15470172      -0.91955061       0.01498234       0.02126024      -0.00414582
H       -0.01684896       3.23227789      -1.22901153       0.01928636      -0.01419164       0.00157884
