15
Properties=species:S:1:pos:R:3:forces:R:3 Coordinates=T from=T ORCA-job=T run=T Energy:=T 13.3972530=T energy=-9704.727536305358 pbc="F F F"
C        0.98429457       0.02767108      -0.04008292      -0.00606690       0.01676786      -0.00752606
H        1.98945162       1.74062508      -0.82784205      -0.00359260      -0.01376051       0.02839149
F       -1.81633805      -0.22955397      -0.29702706      -0.00150075       0.00776203      -0.02607990
F        2.17996720      -0.33014454       0.65197334       0.02091886      -0.00097978       0.01799136
C        1.05209182       1.52373838      -0.29387880      -0.02388337       0.02547904      -0.00775153
H        0.12512714      -0.20351345       0.58991176       0.01211312       0.00546217       0.01437376
H        1.12289228       2.01761518       0.68366527       0.01048149      -0.00512130      -0.00143163
C        0.84543218      -0.80733788      -1.28963428       0.00241883      -0.00033127      -0.00651610
H       -0.21799364      -0.74452749      -1.54249126       0.01091519       0.01517099       0.01954737
H        1.50766900      -0.46650956      -2.09557646      -0.01734940      -0.01718695      -0.00589172
H        1.08415887      -1.84821674      -1.04773126      -0.00783361       0.00404308      -0.02671931
C       -0.17646524       2.02980720      -1.06146047      -0.02576903       0.00706549      -0.02236182
H       -0.04214548       1.87932298      -2.13858996      -0.00088674      -0.01256792       0.01623857
H       -1.05358983       1.43402089      -0.75381015       0.02224084      -0.00629213       0.01668355
H       -0.33141246       3.10302283      -0.89415570       0.00779408      -0.02551080      -0.00894803
