16
Properties=species:S:1:pos:R:3:forces:R:3 Coordinates=T from=T ORCA-job=T run=T Energy:=T 23.4888027=T energy=-19310.470924071546 pbc="F F F"
C        0.71850614      -0.04615951      -0.15845206       0.00320501      -0.00161338      -0.00269044
H        1.71125987       1.85720381      -0.40514799      -0.01439345      -0.00433316      -0.01144959
Cl      -2.18933743      -0.64825603       2.01274431       0.01978079       0.01224359      -0.00829023
H        1.41597559      -0.33478436       0.63684159       0.00195117       0.00350635       0.00074730
C        0.69511512       1.49118211      -0.19245478       0.00061925      -0.00264122      -0.00423942
H       -0.26542941      -0.39964881       0.16702984       0.00885283      -0.00103875      -0.00078493
C        1.13923831      -0.67872661      -1.48279797      -0.01196098      -0.00184837       0.01773641
H        0.42005094      -0.44639931      -2.27327561       0.01467565      -0.00351767       0.00188517
H        2.12705291      -0.32944206      -1.80908524      -0.03004765       0.00835927       0.02334464
H        1.18337245      -1.76688185      -1.38309964      -0.00039888       0.00081161      -0.01452807
C        0.20921073       2.07464671       1.14217849       0.00638864      -0.01811689       0.00095088
H       -0.75641633       1.63789642       1.40804028       0.00034984       0.00797259       0.00750406
H        0.91781720       1.80266206       1.92927939       0.00662431      -0.00104596       0.00478574
H        0.13967605       3.16558171       1.09472123      -0.01674020      -0.01409866       0.00765540
C       -0.14387436       1.97673139      -1.29739685      -0.00579025       0.01922940      -0.01002798
N       -0.79514777       2.38302431      -2.18786500       0.01688391      -0.00386873      -0.01259895
