13
Properties=species:S:1:pos:R:3:forces:R:3 Coordinates=T from=T ORCA-job=T run=T Energy:=T 43.1134672=T energy=-20939.442114896054 pbc="F F F"
C        0.26744764      -0.09537527      -0.01816808      -0.03758356      -0.01022500       0.02529038
H        1.69669024       1.33899338      -0.22575174       0.03268088       0.00768594       0.02310756
Cl      -1.47885318      -0.41760600       0.43107959       0.02121654       0.00271651      -0.02476646
F        3.01785975       0.46153753      -0.18298089       0.01365097       0.01906597      -0.00521615
C        0.56018980       1.39296025      -0.09762362      -0.00312034      -0.02459120      -0.00161905
H        0.86133209      -0.48203425       0.80774981       0.00207072       0.02123762      -0.01124422
H        0.31974757       1.88916154       0.84796792       0.00229489      -0.01688867      -0.02141719
C        0.65093488      -0.82222173      -1.28770081      -0.01973452      -0.00025403       0.01660254
H        0.08388858      -0.45395955      -2.14693545       0.00880395       0.01741816      -0.00050120
H        1.72111601      -0.60311211      -1.37981801      -0.01730358       0.00070595      -0.01578372
H        0.48535690      -1.89819594      -1.19052814       0.00078356      -0.00988560       0.01328836
C       -0.12033620       2.06872131      -1.19020000      -0.00019006      -0.01874493       0.00558160
N       -0.65115408       2.62341084      -2.08198059      -0.00356942       0.01175928      -0.00332246
