15
Properties=species:S:1:pos:R:3:forces:R:3 Coordinates=T from=T ORCA-job=T run=T Energy:=T 90.8700847=T energy=-79939.5850434617 pbc="F F F"
C        0.87170602       0.01057391      -0.05193873      -0.00568914       0.00792927       0.02788018
H        1.70769591       1.92975878      -0.56349656       0.02909864      -0.02735251       0.02551721
F       -1.82931056      -0.10699623      -0.32746035       0.00358265      -0.00151861      -0.00765606
Br       2.51968567      -0.40561710       0.96825266      -0.01453744       0.01092172      -0.02401684
C        0.76009291       1.53867655      -0.16488058      -0.00703731       0.02038019      -0.00149818
H        0.01581800      -0.35483474       0.51530655       0.01506793      -0.00972887       0.03822151
C        0.87426919      -0.66892262      -1.40381064      -0.00224091      -0.00043071      -0.01220381
H       -0.17353832      -0.64943304      -1.70551444      -0.00837913       0.01519987      -0.03918822
H        1.50604764      -0.14561009      -2.12561442       0.03251280      -0.01340566      -0.02388065
H        1.20515461      -1.70565652      -1.30998433      -0.00606895      -0.02180492      -0.00467205
C        0.60381298       2.12974575       1.18883703       0.01509517       0.01028571       0.02045609
N        0.45160084       2.66731501       2.22426225      -0.00671866       0.02622920      -0.00628142
N       -0.33437941       1.86158602      -1.06869387      -0.00750202       0.00085864      -0.00490012
H       -0.60819288       2.82749264      -0.92203268      -0.02485479      -0.04005289       0.00992828
H       -1.12200235       1.19888166      -0.81064177      -0.01232880       0.02248957       0.00229411
