15
Properties=species:S:1:pos:R:3:forces:R:3 Coordinates=T from=T ORCA-job=T run=T Energy:=T 159.5702899=T energy=-89736.72181535042 pbc="F F F"
C        0.93298660       0.01133816      -0.05367279       0.00994539      -0.01219168       0.01786713
H        1.71926638       1.92214008      -0.59215996       0.02518747       0.00913541      -0.02392578
Br      -2.67036127      -0.39039583      -0.01240371       0.00959035      -0.00168843       0.00096424
Cl       2.47250529      -0.31884430       0.84164667      -0.03573847       0.02116376      -0.00888598
C        0.78465996       1.53318732      -0.16889871       0.00465494      -0.00072934      -0.01161160
H        0.12127592      -0.38792259       0.55645380       0.00400898      -0.01234219      -0.01960043
C        0.96218265      -0.66778450      -1.40694712       0.00925209      -0.00230604       0.00725687
H       -0.03648541      -0.62090112      -1.84173120       0.00835119       0.00904319       0.02729792
H        1.67627066      -0.17642932      -2.07347555       0.01965439      -0.00686498      -0.00555931
H        1.24872826      -1.71389276      -1.28253059      -0.03176173      -0.02476610      -0.02530765
C        0.65545908       2.15035126       1.17354836      -0.03936651       0.03440829       0.03635670
N        0.52896557       2.72571789       2.19131357       0.02429605      -0.00088317       0.01185766
N       -0.31095612       1.85083029      -1.07252161      -0.01222514       0.00986514      -0.00365588
H       -0.49727468       2.84676318      -1.04098688      -0.00450133       0.00142807       0.00972925
H       -1.15526316       1.35725220      -0.76314426       0.00865235      -0.02327195      -0.01278315
