13
Properties=species:S:1:pos:R:3:forces:R:3 Coordinates=T from=T ORCA-job=T run=T Energy:=T 122.6121147=T energy=-88234.05741353607 pbc="F F F"
C        1.01552266      -0.03123426      -0.20417262      -0.01401246       0.13159059       0.05066156
H        0.93736226       1.98932450       0.57912062      -0.11966441      -0.02260135      -0.07308838
Cl      -1.51349468      -0.20352993       2.11983599       0.01859283       0.00436378      -0.07280690
Br       2.96571450       0.06985822       0.07694841       0.06405378      -0.10017224      -0.03700367
C        0.42606640       1.38180351      -0.17508702      -0.06140585       0.12782486       0.10584347
H        0.61687734      -0.55246929       0.66860323       0.02225166       0.06854247       0.00348181
H       -0.61220442       1.27590990       0.17459965       0.06560808      -0.05346789      -0.05833122
C        0.72289484      -0.75640759      -1.50277605       0.00562013      -0.02998963       0.00977082
H       -0.31028725      -0.54106858      -1.78914819      -0.00066737      -0.06815766      -0.07197346
H        1.40391248      -0.41503557      -2.28398474      -0.17864976       0.06975556      -0.14512020
H        0.83003372      -1.83523356      -1.40399237       0.08097668      -0.09401334       0.12723048
C        0.46046962       2.06398822      -1.47366306       0.06254705      -0.05523647       0.13086733
N        0.44343322       2.58083433      -2.52936374       0.05474967       0.02156133       0.03046836
