14
Properties=species:S:1:pos:R:3:forces:R:3 Coordinates=T from=T ORCA-job=T run=T Energy:=T 13.5025328=T energy=-21290.086635891163 pbc="F F F"
C        0.16374065      -0.17353139      -0.00295620       0.03893054       0.10102527       0.12836620
H        1.64208211       1.25901955      -0.00110734       1.32839611       0.14553486      -0.17757182
Cl      -1.62834900      -0.41126600       0.15774005      -0.12475725       0.01679074       0.10180573
H        3.22002833       0.78543138      -0.22735752      -0.00078846      -0.02029804       0.00951807
C        0.54073278       1.28501341      -0.00344815      -1.40468680      -0.08854444       0.09382300
H        0.61224047      -0.66528943       0.86493632      -0.07287729       0.05375416      -0.10765897
H        0.13239805       1.79900740      -0.87403692       0.11439564       0.06866726       0.03351016
C        0.62193412      -0.78690372      -1.30933497      -0.03355602      -0.00517048      -0.02018424
H        0.09228107      -0.30220879      -2.13732375       0.07248768      -0.09061159       0.00303966
H        1.69957832      -0.60618434      -1.40247339       0.00177066      -0.00301990       0.06652685
H        0.40000466      -1.85665326      -1.32891925       0.05640375      -0.00358792      -0.03903378
N        0.09593613       2.04010502       1.17601309      -0.02623454       0.14966906      -0.03443627
O       -0.30130965       3.20330809       0.99370069       0.08921417      -0.29985308       0.09710563
O        0.22178197       1.51622207       2.28915734      -0.03869820      -0.02435591      -0.15481022
