17
Properties=species:S:1:pos:R:3:forces:R:3 Coordinates=T from=T ORCA-job=T run=T Energy:=T 34.6304554=T energy=-145795.91203038968 pbc="F F F"
C        0.23812004      -0.07355771      -0.12375617       0.00265768       0.04157192       0.01387331
H        1.45563589       1.57265119      -0.37698358      -0.04294253      -0.01814544      -0.01287682
Br      -1.64867676      -0.57014685       0.30699604      -0.00971904      -0.00889987      -0.03903070
Br       3.59089073      -0.07077001       0.90314390       0.00279161       0.04422916       0.01403054
C        0.38826617       1.44202420      -0.15471902      -0.01267193       0.01352440       0.00642079
H        0.82514387      -0.46341983       0.70710056      -0.00372624      -0.00977495       0.00321244
C        0.64650837      -0.74092054      -1.41761410      -0.00569694      -0.00293347       0.01607039
H        0.06489732      -0.35362669      -2.25404485       0.01127445      -0.00416417      -0.02002234
H        1.70783812      -0.51615801      -1.55561404       0.00398064      -0.01867464      -0.02014114
H        0.53451013      -1.82412757      -1.34871530      -0.01186997      -0.03509864      -0.00885949
C        0.12775716       2.08496891       1.20677445       0.01036477      -0.00151758      -0.01574628
H       -0.91787534       1.96046831       1.50529631       0.01832289       0.00403097       0.00940092
H        0.78084713       1.63513816       1.95932948       0.00173880       0.00198335      -0.00054268
H        0.34907468       3.15723311       1.16253601       0.00710647      -0.00412215      -0.01181314
N       -0.38702769       2.01387762      -1.26519637       0.01058948      -0.00503951       0.03307144
H       -0.15907761       2.99907868      -1.34479781       0.01800108       0.00269689       0.01687545
H       -1.37331216       1.95586702      -1.02851550      -0.00020114       0.00033374       0.01607730
