15
Properties=species:S:1:pos:R:3:forces:R:3 Coordinates=T from=T ORCA-job=T run=T Energy:=T 59.7802567=T energy=-89736.53806154865 pbc="F F F"
C        0.20375271      -0.11079312      -0.15381348      -0.01232759      -0.02612956      -0.00499029
H        1.51575992       1.48274323      -0.45501814      -0.01331147       0.02049099      -0.00725735
Br      -1.69094032      -0.50093429       0.19468446       0.03162696       0.00103026       0.00699299
Cl       3.23418998       0.46965448       1.30709251      -0.00935029      -0.00542018      -0.00436193
C        0.46394308       1.39578595      -0.14107997      -0.00155428      -0.01826487       0.00267788
H        0.75820546      -0.52488828       0.68852474      -0.01373824      -0.01009437       0.00246095
C        0.63482494      -0.76643204      -1.45139912       0.00170021       0.00533049      -0.00993032
H        0.10461168      -0.33871447      -2.30674844      -0.01422996      -0.00934727      -0.00497766
H        1.71109819      -0.60987111      -1.57022655       0.00039312      -0.00232288       0.01584241
H        0.44087897      -1.84069746      -1.42342463       0.00605337       0.01712452      -0.00081110
N        0.26246226       1.94380446       1.20013497       0.01241604       0.00157283      -0.02320058
H        0.39740259       2.94898097       1.14704729      -0.00351128       0.01252584       0.02195669
H        1.06259675       1.58336064       1.72599250      -0.00688838       0.01509857      -0.01084101
C       -0.37372859       2.09685972      -1.12556413      -0.00477551       0.00906390       0.00893981
N       -1.01191766       2.68041131      -1.92207201       0.02749725      -0.01065827       0.00749950
