15
Properties=species:S:1:pos:R:3:forces:R:3 Coordinates=T from=T ORCA-job=T run=T Energy:=T 13.3021905=T energy=-76998.29664140346 pbc="F F F"
C        0.94762954       0.03265107      -0.09488707       0.03090731       0.01062353       0.01397359
H        1.93430330       1.77562756      -0.89857028      -0.00154351      -0.00896858      -0.01105655
F       -1.75099899      -0.20536389      -0.03181603       0.00660845      -0.01709415      -0.01313367
Br       2.59468956      -0.49817537       0.91732768      -0.02153251      -0.02464915      -0.02606466
C        1.02397849       1.53549683      -0.33137809      -0.00033688       0.00848955      -0.00209171
H        0.07220422      -0.20349783       0.52241420       0.02622140      -0.00241079      -0.01838168
H        1.12337659       2.03099271       0.64100119      -0.03413667      -0.01182177       0.00928566
C        0.82273440      -0.79158737      -1.35999005       0.00446535       0.00814963       0.02282332
H       -0.22324212      -0.67082399      -1.65384316       0.00624960       0.02407807       0.03659430
H        1.52296028      -0.47514468      -2.14276522      -0.01923476       0.01116035       0.01193140
H        0.98317947      -1.85162029      -1.14880920      -0.00777041       0.00319272       0.00432019
C       -0.24436105       2.02918266      -1.04371045      -0.00212298       0.00294035      -0.01134482
H       -0.17634690       1.84776362      -2.12185250      -0.00509120       0.00005024       0.00320510
H       -1.09856392       1.45075708      -0.65364424       0.01018906       0.00639036      -0.00988023
H       -0.37640266       3.10745185      -0.89303674       0.00712777      -0.01013038      -0.01018023
