18
Properties=species:S:1:pos:R:3:forces:R:3 Coordinates=T from=T ORCA-job=T run=T Energy:=T 204.4228535=T energy=-27560.95129827555 pbc="F F F"
C        0.05668160      -0.14829285       0.08954341       0.02562434       0.02790622      -0.06073985
H        1.51214181       1.40527374       0.22977850      -0.04030672      -0.02232393      -0.02704705
F       -1.31341988      -0.29461008       0.25801353       0.01302000      -0.03754332      -0.00314592
Cl       3.46019076       1.09981429      -1.21382683       0.03665845      -0.03843974      -0.01860717
C        0.42262072       1.33147125       0.09677690      -0.02776771       0.03738446      -0.01247171
C        0.49232284      -0.89863724      -1.13603844      -0.00365900      -0.01506997       0.03217745
H       -0.08167946      -0.53477906      -1.98715272      -0.02433830       0.02991585      -0.03136557
H        1.55475416      -0.72444330      -1.32234807       0.02700184       0.02400315       0.04116917
H        0.27782799      -1.95409085      -0.98741107       0.03344321      -0.08148292      -0.03478694
N        0.63906152      -0.84194722       1.33576974       0.04201137       0.02808815       0.00640885
O        1.06391039      -0.13426945       2.24517250       0.02633010      -0.00794942      -0.00147688
O        0.59163415      -2.07059323       1.35383084      -0.08005881       0.04463794       0.01298588
C       -0.27652945       2.03524094       1.17339485      -0.03453050       0.03039000       0.06120158
N       -0.86822830       2.66843720       1.96711815      -0.00476507      -0.00880192       0.02189532
C        0.09122275       1.99830856      -1.24820652       0.02319162      -0.01669909      -0.00758471
H        0.81113906       1.65171234      -1.98671052       0.03131911       0.00498827      -0.03423702
H       -0.93296420       1.78269781      -1.56621765      -0.01697730       0.03577561       0.05675388
H        0.21629350       3.07903717      -1.15056660      -0.02619664      -0.03477935      -0.00112933
