15
Properties=species:S:1:pos:R:3:forces:R:3 Coordinates=T from=T ORCA-job=T run=T Energy:=T 229.5283062=T energy=-32238.40427631606 pbc="F F F"
C       -0.02438089      -0.15258853      -0.03363786      -0.00845919       0.00214973      -0.00352897
H        1.52953000       1.29171866      -0.28903925       0.00202292      -0.02762719       0.01653583
Cl      -1.84277740      -0.16310252      -0.12350548      -0.00332392      -0.04325287      -0.00055665
Cl       3.84249330       1.57255423       0.06888451       0.02370737      -0.01385163       0.01083649
C        0.47393840       1.29268637       0.00976091       0.01123267       0.00730626      -0.00323437
H       -0.10166932       1.84504192      -0.73938206      -0.00596566       0.00533836       0.00286062
C        0.53370064      -0.87881181      -1.25089121       0.00899297       0.00786393      -0.00834352
H        0.25925088      -0.33074251      -2.15491556      -0.03365389      -0.00498881      -0.01098514
H        1.62394704      -0.89473124      -1.17309260       0.00666840      -0.00234540       0.01705540
H        0.14639195      -1.89735929      -1.31156860      -0.00328741      -0.00104201      -0.02362799
C        0.32244346      -0.88116412       1.19118663      -0.00654685       0.02205736       0.00088804
N        0.59779941      -1.50603294       2.14795227       0.00892710      -0.00960932      -0.00636876
N        0.28965175       1.87524967       1.33617306       0.01690512       0.03363451       0.01336292
H        0.17997319       2.87647794       1.23418445      -0.02853862       0.01528107      -0.00581198
H        1.17318758       1.75069418       1.82341079       0.01131900       0.00908600       0.00091807
