15
Properties=species:S:1:pos:R:3:forces:R:3 Coordinates=T from=T ORCA-job=T run=T Energy:=T 31.2759044=T energy=-93788.15790655414 pbc="F F F"
C        1.10266334      -0.02702838       0.13450028       0.01778417       0.02378375       0.01741145
H        0.66861989       1.87334142      -0.75674967      -0.01166233       0.01381646      -0.02091315
Br      -2.65161629       0.32844068      -1.36191289      -0.00096813       0.00601025       0.00470614
Cl       2.88044042       0.33078378       0.28474900       0.00813229      -0.00005038      -0.01645644
C        0.34498964       1.28986676       0.10299986       0.00437194       0.00795249      -0.00870128
H       -0.73803652       1.09867611       0.00368529       0.01259048      -0.01706581       0.01551465
C        0.85726511      -0.76816158      -1.17857520       0.00522270       0.00728869       0.02300304
H       -0.22229181      -0.88993473      -1.31470120       0.00733285      -0.00895051       0.00606693
H        1.24692565      -0.17339470      -2.00781284      -0.00799714       0.00048719       0.01364520
H        1.36230977      -1.73520992      -1.15780201       0.00868284      -0.00373670      -0.01310594
C        0.75663228      -0.89731679       1.26276088      -0.01039321      -0.01037980      -0.01811563
N        0.52230766      -1.69244440       2.09623824      -0.02156314      -0.00703461       0.00617024
N        0.58043046       2.14926295       1.29474313      -0.03381735       0.00606767       0.00857109
O        0.66026731       3.36125050       1.09470253       0.01974435      -0.00051484      -0.01506454
O        0.63615279       1.61003829       2.39843456       0.00253967      -0.01767385      -0.00273175
