19
Properties=species:S:1:pos:R:3:forces:R:3 Coordinates=T from=T ORCA-job=T run=T Energy:=T 53.9581757=T energy=-80569.05967680586 pbc="F F F"
C        0.93329997      -0.02110238      -0.04056877       0.00277221      -0.00335723      -0.01935878
H        1.64814923       1.91097227      -0.53268900       0.01901502       0.01424728       0.00287165
F       -1.70038435      -0.47489024      -0.55312647      -0.00778537      -0.00883723       0.00573920
Br       2.85740478      -0.23621213       0.62661012      -0.02587134      -0.00419878       0.01544017
C        0.70783628       1.51198467      -0.13212074       0.00458528       0.00889377      -0.01355022
C        0.86298002      -0.74700894      -1.37186981       0.00271635      -0.00991696      -0.01284626
H       -0.20936069      -0.74393957      -1.61145052      -0.00204763       0.02158783       0.01900411
H        1.49029596      -0.23740378      -2.10938229      -0.00720189       0.00661585      -0.00516169
H        1.21121244      -1.77624122      -1.26001950       0.00165353      -0.00762418       0.01579436
C        0.13932412      -0.66689817       1.01338019       0.01532345       0.01035501       0.00946939
N       -0.23122002      -1.14960102       2.02312321       0.00362648      -0.01258997      -0.00198173
C        0.46480004       2.12255831       1.24783585       0.00539958       0.00885067      -0.00365312
H       -0.49998757       1.78665153       1.63695110       0.00140800       0.00239587      -0.01548954
H        1.24388092       1.84685627       1.96307530      -0.00654542      -0.03622129      -0.00070655
H        0.44468746       3.21442313       1.17008922      -0.00465992       0.01570866      -0.00978647
C       -0.42500695       1.89405640      -1.09178187      -0.01329625       0.00356741      -0.00665834
H       -0.14769356       1.67555657      -2.12732527       0.01853935       0.00923013      -0.00714120
H       -1.31217894       1.29293556      -0.86006943      -0.00552555      -0.03022701       0.01661161
H       -0.60489899       2.97303271      -1.01250130      -0.00210581       0.01152017       0.01140342
