16
Properties=species:S:1:pos:R:3:forces:R:3 Coordinates=T from=T ORCA-job=T run=T Energy:=T 183.7066316=T energy=-24946.262729835726 pbc="F F F"
C        1.03272733       0.00743481      -0.00380313      -0.16220396      -0.00078707      -0.03987292
H        1.69145115       1.94290940      -0.56797449      -0.04509169       0.00697242       0.00671397
F       -1.78568645      -0.24738098      -0.58229216       0.02907678       0.00364719       0.02214125
Cl       2.76914585      -0.14973375       0.56166750       0.02235761       0.03509777       0.00423809
C        0.77089366       1.53870618      -0.12081931       0.01666485      -0.07072457       0.06073957
C        0.87590850      -0.69178840      -1.34266673       0.03007484      -0.01995212      -0.05072776
H       -0.20673808      -0.76108655      -1.50393706       0.00877347      -0.03200380       0.04477759
H        1.34853860      -0.11065208      -2.13586985       0.08215400       0.08777870       0.03604661
H        1.35678778      -1.66912237      -1.28380449      -0.11629968      -0.13751143      -0.03212988
C        0.23668621      -0.63544858       1.05647489       0.05565603       0.12229484       0.14987586
N       -0.17495073      -1.13314785       2.04232001       0.01649596       0.00836860      -0.21615494
C        0.69196565       2.12165167       1.24465757      -0.04347181       0.08687561       0.18652490
N        0.59441023       2.64729142       2.29550927       0.02964141      -0.05622189      -0.23084516
N       -0.36251661       1.81873092      -0.97503572       0.04080053       0.06245284       0.03305997
H       -0.67495760       2.77015691      -0.81246070      -0.03853188      -0.09628556       0.03319886
H       -1.12707554       1.09764924      -0.79025561       0.07390354      -0.00000153      -0.00758600
