15
Properties=species:S:1:pos:R:3:forces:R:3 Coordinates=T from=T ORCA-job=T run=T Energy:=T 29.2803135=T energy=-23794.525210240434 pbc="F F F"
C        0.16575182      -0.09843360      -0.00422222       0.11322474       0.02925696      -0.08979106
H        1.78793662       1.17331910      -0.34065350       0.58629242      -0.04804393       0.08668622
Cl      -1.64181687      -0.17660967       0.25341438      -0.24373086      -0.06658905       0.02602346
H        2.99357072       0.56431362      -0.42578720       0.11238977       0.16422358      -0.07485594
C        0.63258745       1.34524606      -0.09059798      -0.55309684      -0.04486320      -0.20425099
H        0.48613983       1.88718648       0.83992726      -0.09504714      -0.04570597       0.10342292
C        0.53827587      -0.93573198      -1.22175013       0.00405445       0.03006249      -0.02949738
H        0.01457116      -0.55217225      -2.09454206       0.01575727      -0.00446613      -0.01320066
H        1.62117914      -0.81063728      -1.35730025      -0.05598022       0.03808022       0.02600296
H        0.29151889      -1.99004494      -1.07922527      -0.04959535       0.02997542       0.14884380
C        0.74623517      -0.67183750       1.22063451      -0.04207100      -0.03665930       0.09775068
N        1.10243995      -1.14797803       2.23679169       0.03702471       0.03607523      -0.14173383
N       -0.03614223       2.09617699      -1.13891938       0.15050693      -0.16599364       0.05128187
O       -0.72812905       3.07776772      -0.81993604       0.11101209       0.12695985       0.05529453
O        0.17000151       1.75919529      -2.31717379      -0.09074097      -0.04231251      -0.04197658
