15
Properties=species:S:1:pos:R:3:forces:R:3 Coordinates=T from=T ORCA-job=T run=T Energy:=T 55.3978746=T energy=-9947.854325089007 pbc="F F F"
C        0.43485018       0.02417486      -0.02974419       0.02799429      -0.01691491       0.01553151
H        1.30080831       1.92129165      -0.42246037       0.01966862      -0.01246846       0.00738922
F       -0.86538317      -0.46337694       0.33448765      -0.00699764      -0.02910593      -0.01275490
H        1.35858681      -1.58916114       1.11766674      -0.00762312       0.03799182      -0.01779784
C        0.33006409       1.53805255      -0.09638310       0.00364137       0.00512144      -0.00122610
H       -0.41977786       1.81755050      -0.85091234      -0.02326285      -0.00266764      -0.00264379
C        0.75108007      -0.60709979      -1.36741340       0.00304599      -0.00018331      -0.01552026
H       -0.01635566      -0.37563498      -2.11543359      -0.02769132       0.01309160       0.00290342
H        1.71994898      -0.24256407      -1.72025450       0.01079138      -0.02394201      -0.01942066
H        0.81007623      -1.69431668      -1.24992705       0.01282675       0.00124555      -0.00152231
C        1.45610518      -0.43826271       1.05283607       0.01627122      -0.01512598       0.03129024
N        2.23685710       0.28321557       1.70654691      -0.02290386      -0.00628280      -0.01045416
N        0.01387074       2.16891388       1.18630380      -0.00647061       0.02915602       0.02014496
H        0.81483810       1.87740198       1.75590031      -0.00883621       0.00563500       0.00757618
H       -0.78131908       1.65729534       1.55997704       0.00954600       0.01444960      -0.00349549
