15
Properties=species:S:1:pos:R:3:forces:R:3 Coordinates=T from=T ORCA-job=T run=T Energy:=T 86.6272677=T energy=-89736.38159840574 pbc="F F F"
C        1.27214657      -0.04088135      -0.05798282      -0.04244409       0.00599213       0.01567590
H        1.18746660       1.93869216       0.77963197      -0.00276489      -0.01438198       0.00055925
Cl      -2.72340992       0.85057354      -0.92883078       0.00845501      -0.01366560      -0.00529860
Br       3.13778714       0.25692893      -0.66134972       0.03120563      -0.00153265      -0.00282998
C        0.56910241       1.31851109       0.12258526       0.01050771       0.00299748       0.01035393
H       -0.38118226       1.09714478       0.62967486       0.02044273      -0.00584070      -0.01812018
C        0.55359345      -0.90113666      -1.08766924      -0.00528456       0.00383892       0.00652650
H       -0.50260532      -0.96835472      -0.80929083      -0.00659426      -0.02016328      -0.00058733
H        0.60763938      -0.38967107      -2.04846675      -0.01327275      -0.01373669      -0.00307755
H        1.00426517      -1.89318589      -1.16037236       0.00473596       0.01300277       0.00377002
C        1.38387106      -0.72182927       1.23379978      -0.01439252       0.01989009      -0.02160376
N        1.44580141      -1.25684930       2.28000912       0.00406738       0.00211569      -0.00487274
N        0.35148901       1.94819941      -1.16748483      -0.00824893       0.00914443       0.01670197
H        0.45689437       2.94950492      -1.07241030       0.00252259       0.00125780      -0.00953565
H       -0.62385865       1.76479345      -1.41481341       0.01106503       0.01108159       0.01233822
