15
Properties=species:S:1:pos:R:3:forces:R:3 Coordinates=T from=T ORCA-job=T run=T Energy:=T 11.3378776=T energy=-19500.972533547116 pbc="F F F"
C        0.14097225       0.01009594      -0.00703923       0.04296609      -0.00473197       0.00048588
H        1.85575263       1.17293809       0.02065970       0.00834900      -0.03486501       0.00028266
Cl      -1.70166607       0.19668354      -0.04037958       0.00227473      -0.00023266       0.00003388
F        3.16236932      -0.29217660       0.04980915       0.00801888      -0.00349671      -0.00142977
C        0.77507920       1.38639129       0.00050821       0.01154104       0.04431768       0.00037125
H        0.46979332       1.95428633       0.88390593      -0.01673167       0.03158585       0.02198148
H        0.50178465       1.94944853      -0.89637862      -0.01579242       0.03096311      -0.02241898
C        0.57995791      -0.75585439      -1.23873123       0.00625371      -0.02353260      -0.03947300
H        0.13240831      -1.75350707      -1.26082398      -0.02132726      -0.03225835      -0.01396274
H        0.30341720      -0.22186046      -2.15221475      -0.01708995       0.00697493      -0.03718723
H        1.67454954      -0.81485434      -1.13039473       0.01382019       0.01678242       0.03129004
C        0.53603501      -0.74923410       1.24345676       0.00444166      -0.02286911       0.03972289
H        1.63390873      -0.80813970       1.17425673       0.01456496       0.01605120      -0.02991897
H        0.22717610      -0.21047459       2.14368684      -0.01908907       0.00694374       0.03676879
H        0.08824189      -1.74697248       1.25488879      -0.02219988      -0.03163250       0.01345382
