19
Properties=species:S:1:pos:R:3:forces:R:3 Coordinates=T from=T ORCA-job=T run=T Energy:=T 203.1193554=T energy=-32868.84042331987 pbc="F F F"
C        0.00080688      -0.12252632       0.05080701       0.06897114      -0.06201591      -0.00929596
H        1.60777537       1.24286845      -0.04136248      -0.12790584      -0.02380661       0.07847324
Cl      -1.83202789      -0.12020345       0.13638754       0.06755437      -0.00061897       0.02107775
Cl       3.65758026       0.44887891      -0.61115121       0.06521746      -0.01814986      -0.01974203
C        0.50135073       1.33114947      -0.01655861      -0.06046282       0.02782990      -0.00873910
C        0.45180387      -0.91733319      -1.18809429       0.02772762      -0.01922074      -0.06736481
H       -0.39646850      -1.20140150      -1.81513235       0.04253630       0.04310090       0.01619288
H        1.16912392      -0.34773881      -1.77781167       0.04917525      -0.01588709       0.06153131
H        0.98034296      -1.81956340      -0.86890609      -0.08605914       0.01326118      -0.06576522
C        0.51481044      -0.78353197       1.32131579       0.02896653      -0.03852230       0.05176838
H        1.60757792      -0.70420297       1.31201370      -0.02148062      -0.05396990      -0.03671957
H        0.12349258      -0.30735888       2.22197383      -0.01512436       0.06711678      -0.01443614
H        0.22731466      -1.83790085       1.33159792      -0.00313572      -0.00452638       0.02681301
C        0.11088891       2.06645163       1.18339021       0.05449317      -0.01383266       0.17582746
N       -0.19430955       2.66799173       2.14646079      -0.03603681       0.05104523       0.00670043
C        0.07798417       2.11965516      -1.25338677      -0.00640499       0.08085860      -0.13800157
H        0.60140711       1.74001457      -2.12941760      -0.02711907      -0.09538330      -0.08453732
H       -1.00271806       2.07380172      -1.41368255       0.03776680       0.03870583       0.01274729
H        0.38148422       3.16230971      -1.13473317      -0.05867926       0.02401529      -0.00653005
