17
Properties=species:S:1:pos:R:3:forces:R:3 Coordinates=T from=T ORCA-job=T run=T Energy:=T 42.7219547=T energy=-78501.26197445598 pbc="F F F"
C       -0.03501031      -0.02227942      -0.05078477       0.00523144      -0.00833939       0.00186789
H       -0.32219494       2.02825720      -0.66034062      -0.00325021      -0.01064920      -0.00297225
Br      -1.84169729      -0.35934034      -0.90384439      -0.00441965       0.03549832       0.00120638
F        2.82917309      -0.10513258       1.37745936       0.01027612       0.00251425       0.00185762
C        0.01233499       1.49375137       0.23690350      -0.01455199      -0.03540629      -0.00806353
H       -0.73223309       1.70105759       1.01882162       0.01683418      -0.00862367       0.00245242
C        1.04283101      -0.45579679      -1.02700397       0.00024632       0.00034385       0.01448777
H        0.88742756      -1.49353484      -1.33572492      -0.00647404       0.00914369      -0.02143113
H        1.05458339       0.18123551      -1.91795888       0.01544415      -0.01331298      -0.00014820
H        1.98416186      -0.38635724      -0.46346938      -0.00649722       0.03039989       0.02061560
C        0.03196043      -0.84856796       1.22054022       0.00304329       0.00399395      -0.01552717
H        1.05705118      -0.71222897       1.60696588      -0.00626569       0.03996008      -0.01298381
H       -0.72255614      -0.51711924       1.94102961       0.00502082      -0.03320046      -0.00060702
H       -0.12568356      -1.90899473       1.00007675      -0.01874399       0.00517600       0.01528262
N        1.32311150       1.99214624       0.63900772      -0.03429675       0.01273599       0.02779688
H        1.84493404       2.20357228      -0.20344813       0.00307372      -0.03336411      -0.03477689
H        1.88424619       1.24022188       1.09702036       0.03532949       0.00313006       0.01094281
