16
Properties=species:S:1:pos:R:3:forces:R:3 Coordinates=T from=T ORCA-job=T run=T Energy:=T 265.7535743=T energy=-22007.07369207958 pbc="F F F"
C        0.07460245      -0.06113990      -0.04826169      -0.02936207       0.13776247      -0.05628425
H        1.74615622       1.24519369      -0.33711763       0.20036410      -0.06295035       0.02166890
F       -1.33171750       0.09878927      -0.04982194      -0.09063203      -0.04523541       0.14024751
Cl       3.92040645       0.15851998       0.35199751      -0.03968476      -0.02207454      -0.02575371
C        0.67589001       1.34122913      -0.13146354       0.10054615       0.11824398      -0.14799453
H        0.60768412       1.85905168       0.82963567      -0.16314109      -0.04313030       0.03013609
C        0.42688475      -0.92771531      -1.24199538       0.04902771       0.04664129      -0.09107294
H       -0.33102272      -1.71401966      -1.33560661       0.13531807       0.00895335       0.06362241
H        0.43074607      -0.34246648      -2.16376287      -0.01438080      -0.03109403      -0.07435192
H        1.41657229      -1.36823466      -1.08609048      -0.04602040       0.10752730      -0.12338860
C        0.48355020      -0.73319589       1.23852182      -0.10566318       0.00793416       0.01160222
H        1.57691202      -0.71836483       1.32325368      -0.13712521      -0.05866072      -0.01507683
H        0.03054297      -0.21458035       2.08421864       0.00537950       0.06345729       0.11479725
H        0.10180872      -1.75437339       1.21218949       0.08777322      -0.18167748       0.17216192
C        0.03089359       2.15615621      -1.16206193      -0.06709337       0.11055106      -0.28342274
N       -0.47065965       2.79907053      -2.01218474       0.11469415      -0.15624807       0.26310923
