16
Properties=species:S:1:pos:R:3:forces:R:3 Coordinates=T from=T ORCA-job=T run=T Energy:=T 62.5027954=T energy=-79503.68270002144 pbc="F F F"
C        0.07366366      -0.05634867      -0.01361382      -0.03094282      -0.00425356       0.00297044
H        1.79084252       1.09576510       0.06926325      -0.00335163      -0.00327265       0.00550867
Br      -1.92971997       0.06525759      -0.14011798       0.01906840       0.01730541       0.00848580
F        3.06517609       0.05500420       0.06644517      -0.00978545      -0.01006549       0.00414569
C        0.67971462       1.34321799       0.04928813      -0.00630951       0.01555695      -0.02885458
H        0.43298765       1.90503933      -0.85613056       0.00491088       0.04695097      -0.01556954
C        0.59372292      -0.75011336      -1.25994851       0.00726719      -0.00113913      -0.02262378
H        0.20056705      -1.76755210      -1.33526495       0.00304732      -0.00501085       0.00078477
H        0.32150143      -0.19677216      -2.16315235      -0.02804247      -0.00106620      -0.01761566
H        1.68442713      -0.74541954      -1.12549090       0.02624962       0.00924170       0.00143390
C        0.44562874      -0.83396209       1.23264264       0.00490830      -0.01461668       0.03391083
H        1.54274618      -0.81039485       1.23044770       0.03607852      -0.01708548       0.00141491
H        0.05434454      -0.35481361       2.13262443      -0.01033320      -0.02068450       0.03160419
H        0.07535451      -1.86095903       1.18124621      -0.01089641      -0.01720006       0.00445737
C        0.29619611       2.11290148       1.22327454       0.03986927      -0.01299797       0.00272726
N        0.03112676       2.73622972       2.18522701      -0.04173802       0.01833754      -0.01278029
