19
Properties=species:S:1:pos:R:3:forces:R:3 Coordinates=T from=T ORCA-job=T run=T Energy:=T 57.9186815=T energy=-20376.80646342805 pbc="F F F"
C        1.23056730       0.02219666       0.10429350       0.00060226       0.01417457       0.00518593
H        1.53146531       1.84797622      -0.99789920       0.01233779      -0.01139108      -0.01448290
Cl      -2.37758642      -0.95360175      -2.08692484       0.02755273       0.01956714       0.01079229
H        2.23867786      -0.02098403       0.54128513       0.00348199       0.01619912       0.02558391
C        0.91742845       1.52094090      -0.14816821       0.00183173       0.01482597      -0.00371561
C        1.24762945      -0.75261929      -1.21394932      -0.00444630       0.00492082      -0.01116736
H        0.25534263      -0.78293453      -1.67145113      -0.02919865      -0.00667144       0.00213104
H        1.96141126      -0.31201411      -1.91889585       0.00767158       0.00417457      -0.01542268
H        1.55428987      -1.78775202      -1.03086201      -0.00480632      -0.00240260      -0.00190967
C        0.23884809      -0.60421685       1.08468455      -0.01482887      -0.00426092       0.00957051
H        0.57096283      -1.61029407       1.35845815       0.01763214      -0.00865886       0.00151312
H        0.14996131      -0.01878618       2.00598236       0.01284953       0.01891096       0.00750414
H       -0.74489366      -0.70014291       0.61918047      -0.01287475       0.00112095      -0.03046191
C        1.35263071       2.32538420       1.00298689       0.00606854      -0.00883656       0.02383341
N        1.69396352       2.95805688       1.93404989       0.00024939      -0.00610273      -0.00675160
C       -0.55762198       1.81423096      -0.46347665      -0.01685904      -0.00841072      -0.00669378
H       -0.95594916       1.11576323      -1.20305041      -0.01670603      -0.02782609       0.00181033
H       -1.16830137       1.71613348       0.43564223      -0.01243763      -0.00762176       0.00212091
H       -0.66882599       2.83649321      -0.83661555       0.02187993      -0.00171133       0.00055993
