19
Properties=species:S:1:pos:R:3:forces:R:3 Coordinates=T from=T ORCA-job=T run=T Energy:=T 82.4332545=T energy=-23860.388250695134 pbc="F F F"
C        0.15038100      -0.04189547      -0.02499541       0.02403423       0.04728331      -0.06168931
H        4.10908591       1.02025843      -0.01404072      -0.02950806      -0.00191224      -0.00522035
Cl      -2.87758394      -1.36730313      -0.10146367       0.06692064      -0.04947414      -0.00507305
H        4.68886843       1.47505498      -0.03157582       0.01578915       0.00145119       0.00460653
C        0.07707851       1.30566529       0.07590885       0.10763896       0.04188060      -0.04259454
C        0.37678810      -0.82929819      -1.28456013      -0.01021800      -0.05715702      -0.00495556
H       -0.02247133      -1.83158552      -1.14568598      -0.10642464      -0.01777283       0.01687726
H       -0.09901220      -0.38453237      -2.14996738      -0.01038425      -0.05532560       0.01189738
H        1.45734022      -0.91567884      -1.47042611       0.01683150       0.03543456      -0.01864122
C        0.20932174      -0.82972150       1.25292413      -0.02057274       0.01829589      -0.01927359
H        1.25218885      -1.03531321       1.53753354       0.01575170       0.01671816       0.00381117
H       -0.28156746      -0.28122449       2.05453480       0.01579966      -0.01166087       0.05808357
H       -0.31309950      -1.77310712       1.10200785      -0.04122801      -0.00129570       0.02236200
N        0.09787223       1.99607206       1.30280925      -0.10142168       0.02558502       0.03868375
H       -0.25256087       2.93692249       1.18382101      -0.00099288      -0.05087331      -0.00893494
H        1.03096977       2.05150749       1.68888473       0.04012699      -0.01902436      -0.01449558
N        0.00628933       2.20154805      -1.10273434      -0.07350473       0.01934531       0.02619741
O        0.26028316       3.39975092      -0.90002098       0.01970010       0.03166175       0.03050807
O       -0.32756196       1.76499011      -2.20127360       0.07166207       0.02684030      -0.03214900
