17
Properties=species:S:1:pos:R:3:forces:R:3 Coordinates=T from=T ORCA-job=T run=T Energy:=T 58.1210460=T energy=-22359.583946695868 pbc="F F F"
C        1.27226016      -0.09482195      -0.03136967       0.00457367       0.03063860       0.00764149
H        2.03744625       1.51072142       1.21890443       0.01217705       0.00743796      -0.01803879
Cl      -2.80748281      -1.31183411       0.70132345       0.02221334      -0.02229205      -0.03595006
H        2.29507318      -0.38665926      -0.31885638      -0.00107450      -0.00832976      -0.00158402
C        1.42071093       1.38553699       0.32642122      -0.01174104       0.02113205       0.01399765
H        1.83277813       1.95240574      -0.51118749      -0.00203325      -0.02650528       0.00714139
C        0.34032293      -0.29824288      -1.22750494      -0.00932865      -0.00231064      -0.00422869
H       -0.70423306      -0.23988488      -0.91112873      -0.01666600       0.02143086      -0.01099446
H        0.52651584       0.44046226      -2.01384949      -0.00093975      -0.01792546      -0.02154101
H        0.48722745      -1.29690206      -1.64744827      -0.00778992      -0.02535683       0.01207305
C        0.83124831      -0.94249684       1.16268931      -0.00771097       0.01007536       0.00781228
H        1.41217630      -0.70380993       2.06040067       0.01826124      -0.01443831      -0.00324182
H       -0.23371507      -0.80676329       1.36777319       0.00437892       0.00131239       0.00992224
H        0.97007347      -2.00285213       0.93212155      -0.01379396       0.00350775      -0.00169287
N        0.11577519       2.03781744       0.64287071      -0.01872636       0.00730750       0.02179331
O       -0.48092903       2.58321818      -0.28699737       0.01480134      -0.00428355       0.00532803
O       -0.27029818       1.98766530       1.80973782       0.01339884       0.01859941       0.01156228
