18
Properties=species:S:1:pos:R:3:forces:R:3 Coordinates=T from=T ORCA-job=T run=T Energy:=T 191.0071061=T energy=-33304.94192143675 pbc="F F F"
C        0.01655767      -0.12668730       0.01439705       0.01236949      -0.04472120      -0.01301110
H        1.59095764       1.25735064      -0.05322359      -0.05423137      -0.00592082       0.01408561
Cl      -1.81706868      -0.12552452       0.06094928       0.00948500       0.04502830      -0.01037707
Cl       3.72281068       0.38142650      -0.13369401       0.03203817       0.01974711      -0.01577452
C        0.48806613       1.33375994      -0.00566225      -0.03547400      -0.01991771       0.02510236
C        0.50781870      -0.83884746      -1.25406787      -0.00495660      -0.01046143      -0.03110682
H       -0.32084199      -1.29383679      -1.79797723      -0.01036651      -0.03263521       0.01892743
H        1.00695036      -0.12948111      -1.91156430      -0.00330673      -0.01877438      -0.02046549
H        1.23038459      -1.60904197      -0.98072502       0.03541568       0.03627269      -0.02963848
C        0.51178142      -0.82325133       1.26990402      -0.01165517      -0.01277962       0.01600874
H        1.60393630      -0.73838795       1.27265622      -0.01621894      -0.04432132       0.01609924
H        0.10112359      -0.37045496       2.17464067       0.00269297       0.02013987       0.00612240
H        0.22449859      -1.87770341       1.24516099       0.00956061      -0.00252022       0.00529374
C        0.12019845       2.02724805       1.24340250      -0.02761698       0.03627268      -0.03846145
N       -0.22565362       2.64087866       2.18528220       0.02006350       0.02534290       0.06148521
N        0.01436668       2.04475430      -1.18901940      -0.01177362       0.10064832       0.02142982
H        0.59073853       2.86792033      -1.32400919      -0.00175239      -0.03671285      -0.00759684
H       -0.94322505       2.35074837      -1.04643005       0.05572688      -0.05468710      -0.01812278
