19
Properties=species:S:1:pos:R:3:forces:R:3 Coordinates=T from=T ORCA-job=T run=T Energy:=T 68.4361568=T energy=-151350.34561903958 pbc="F F F"
C        0.03768957      -0.08400235       0.06137519       0.01239440      -0.04251087       0.01712271
H        1.69719608       1.20704768      -0.14382808      -0.00587753       0.02910300       0.01448463
Br      -1.95076069       0.04243797       0.25324855      -0.00107251      -0.02109014      -0.01039751
Br       3.99010517       0.20724349      -0.22923520       0.00388733       0.02207502       0.02799643
C        0.61799160       1.33689632       0.04381079      -0.00825138      -0.03936039      -0.02180909
C        0.34926678      -0.87575017      -1.19787159      -0.00764159      -0.00876510       0.00535521
H       -0.08029833      -0.42961999      -2.09225910      -0.02831664      -0.01086644      -0.01451711
H        1.43996914      -0.90328181      -1.30211316      -0.01248835       0.01698190      -0.00652898
H       -0.03297742      -1.89319876      -1.08685198      -0.00208462      -0.01565722       0.00364895
C        0.58314438      -0.80535468       1.28729006       0.00098315      -0.00129983       0.00988216
H        1.67623239      -0.80538785       1.20266284      -0.01035477       0.00478750      -0.00555958
H        0.29771238      -0.29735744       2.20621925       0.00627554       0.02197019      -0.00306806
H        0.21959880      -1.83663185       1.30710468      -0.01283290       0.01882929      -0.03145128
N        0.38968287       2.04621846       1.25508690       0.01947030      -0.00552556      -0.03759514
H       -0.57000606       2.36888968       1.28876948       0.00113898       0.00108506       0.00735791
H        1.00491034       2.84787523       1.29391034       0.03321914       0.01940544       0.02755702
N        0.09536796       2.11528822      -1.17517720       0.01820638       0.02349941       0.01866170
O       -0.73092986       3.00860904      -0.97385307      -0.01403396       0.01105089       0.01458972
O        0.54416505       1.81790877      -2.28019867       0.00737908      -0.02371215      -0.01572968
