20
Properties=species:S:1:pos:R:3:forces:R:3 Coordinates=T from=T ORCA-job=T run=T Energy:=T 51.2090515=T energy=-9577.309650651492 pbc="F F F"
C        1.16275514       0.08003785       0.12813395      -0.01243152      -0.00626873       0.00648144
H        1.59215656       2.03223168      -0.59148063      -0.02772892      -0.01434678       0.00528480
F       -1.93948150      -0.56713033      -0.75198131      -0.00658896       0.01389576      -0.02971269
H        2.20170087       0.10847499       0.50267593      -0.01972857      -0.01055833      -0.01129699
C        0.74459432       1.55368055      -0.05997737      -0.02584145      -0.01576282      -0.01134917
C        1.12522831      -0.65713583      -1.21624465       0.00483102      -0.00447650      -0.00066930
H        0.07508719      -0.82451966      -1.47499861      -0.01232348       0.02017761       0.04320798
H        1.61396060      -0.07882211      -2.00831407       0.01279782       0.01090111      -0.00058356
H        1.63055880      -1.62744857      -1.13053743       0.01468843      -0.01275999      -0.00884719
C        0.28624503      -0.68517677       1.12691778      -0.00089019      -0.00645910       0.01194681
H        0.64588476      -1.71922513       1.20545626       0.01918215      -0.00120620       0.01656903
H        0.31445281      -0.24963140       2.13170018       0.02407123       0.00290155       0.00675601
H       -0.73786463      -0.71397666       0.72877720       0.00613359       0.01247609      -0.02400681
C        0.60609004       2.28303284       1.28209800      -0.00014338      -0.00052888      -0.01809071
H       -0.25804720       1.89937492       1.83067801       0.02454269       0.00899620       0.00988107
H        1.50444947       2.18128406       1.90637631      -0.02443262      -0.00356334      -0.00469793
H        0.43839732       3.35179251       1.09934172       0.01989618       0.01442103       0.02736270
N       -0.45486657       1.67577362      -0.88470323      -0.03944317       0.01331550       0.02046725
H       -0.99269607       2.47741156      -0.57129680       0.01864944      -0.01845761      -0.02116132
H       -1.07396525       0.83166187      -0.81726124       0.02475969      -0.00269655      -0.01754143
