17
Properties=species:S:1:pos:R:3:forces:R:3 Coordinates=T from=T ORCA-job=T run=T Energy:=T 161.9207829=T energy=-11450.05799237869 pbc="F F F"
C        0.12070873      -0.16878383       0.01266310      -0.02547301      -0.03151193       0.02445039
H        1.60110413       1.31774636      -0.02341253      -0.06830009       0.00643954      -0.00804624
F       -1.29193377      -0.26763335       0.17009581      -0.02055988       0.01694335       0.02727494
H        3.22811860       0.37233893       0.36801091      -0.03940421      -0.05087783      -0.00243386
C        0.48419732       1.31610094      -0.01729401      -0.03246326      -0.06078089       0.02219402
C        0.44414538      -0.83222359      -1.30786930       0.05609473       0.01240033      -0.03340867
H       -0.12283125      -0.36854810      -2.11491349       0.03171429      -0.08960489      -0.07007472
H        1.51427662      -0.69709313      -1.47549327       0.08514852      -0.01787893      -0.06044265
H        0.22139635      -1.90361442      -1.24755511      -0.05143791       0.05202965       0.02167896
N        0.75469313      -0.73146522       1.15975949       0.02348769       0.03891169       0.05550442
H        1.76030091      -0.46413518       1.08394922       0.03006175       0.05958761      -0.01607943
H        0.70652355      -1.74483380       1.10880837      -0.01790608       0.01233980      -0.03977185
C        0.01780046       1.96867534       1.22064661       0.02971377       0.00925806      -0.03066359
N       -0.38709329       2.60745515       2.12141810      -0.01317885       0.02433530       0.03893434
N       -0.05287629       1.96847769      -1.21565208      -0.01763832      -0.01169933       0.04711805
H        0.28589574       2.92241567      -1.24590801       0.04288514       0.02787723       0.00426523
H       -1.06328630       2.01059054      -1.12998381      -0.01274427       0.00223125       0.01950068
