15
Properties=species:S:1:pos:R:3:forces:R:3 Coordinates=T from=T ORCA-job=T run=T Energy:=T 68.4730238=T energy=-12646.686947067543 pbc="F F F"
C        0.12644847      -0.15428699       0.06337533      -0.00613816      -0.02099473      -0.00134232
H        1.59434698       1.32000669       0.00734627      -0.02566655      -0.00105733       0.03432673
F       -1.27249578      -0.29384494       0.21366229       0.03181349      -0.00114297      -0.00779205
F        3.01357447       0.16136716       0.03757068       0.01855218      -0.00650115       0.02581968
C        0.48428887       1.33235144       0.02854568      -0.00880227      -0.04352064      -0.00934494
H        0.09294474       1.79471013      -0.88283718      -0.00492302      -0.00743081      -0.02299496
C        0.51886614      -0.80694012      -1.25315189      -0.00519131      -0.00101517       0.00051671
H        0.00581742      -0.34798335      -2.10496454      -0.00570017      -0.01414490      -0.00955044
H        1.60340351      -0.67772720      -1.31894589      -0.03290867      -0.00263500       0.00462283
H        0.26237495      -1.87195361      -1.21708075      -0.00093028       0.03085170      -0.01325635
N        0.77552881      -0.72530398       1.20847302       0.00596593       0.03221089       0.02348710
H        1.78066253      -0.52111072       1.01108464      -0.00195995       0.01028224      -0.01065983
H        0.64636143      -1.73330190       1.17690448       0.00717276       0.02213929      -0.02705249
C       -0.04348708       2.06182744       1.17690965       0.02269454       0.00591577       0.02694354
N       -0.47547547       2.70183994       2.06286821       0.00602148      -0.00295720      -0.01372323
