14
Properties=species:S:1:pos:R:3:forces:R:3 Coordinates=T from=T ORCA-job=T run=T Energy:=T 18.4140241=T energy=-19938.26149540545 pbc="F F F"
C        0.25639251      -0.06438016       0.01016821      -0.07460592       0.04711626      -0.14052317
H        1.84056129       1.37300497      -0.07040772       0.09443162      -0.00118360      -0.09384596
Cl      -3.02721040       0.25280147       0.59374579      -0.11669149       0.01788840       0.03380443
F        3.25273892      -0.28179226      -1.68063060      -0.04144192      -0.05519584      -0.04022117
C        0.75359958       1.34608551       0.01082807       0.04232238       0.00126419       0.02710985
H       -0.73485870      -0.20402497       0.45149421      -0.00470125      -0.16697249      -0.03273650
H        0.44465006       1.83304822       0.93744672       0.01758485       0.00063500       0.11213007
N        0.88465171      -0.98575411      -0.63363589       0.06473742       0.00401628       0.02360258
H        0.33393341      -1.84442411      -0.63658847       0.08349453       0.01732979       0.07154262
H        2.42089859      -0.62892632      -1.37810278      -0.06649893       0.06877903       0.11471076
C        0.07532206       2.05230999      -1.17228161       0.00062768       0.00024185      -0.00455189
H        0.41264434       1.59317088      -2.10466294      -0.00970912       0.05017416      -0.03449349
H       -1.00671258       1.93039015      -1.08414934      -0.01053473       0.03025685      -0.04723308
H        0.31418921       3.11986073      -1.19606365       0.02098488      -0.01434987       0.01070496
