16
Properties=species:S:1:pos:R:3:forces:R:3 Coordinates=T from=T ORCA-job=T run=T Energy:=T 48.8299526=T energy=-22792.802381346173 pbc="F F F"
C       -0.06991878      -0.11607679       0.02932511       0.01731973       0.05564533       0.01715266
H        1.59918605       1.13939866       0.09680559      -0.01034808      -0.01486166      -0.01431536
Cl      -1.97908290       0.04020049      -0.09654613      -0.03924073      -0.03404549      -0.00206836
H        2.87578510       0.01068408      -1.14033955      -0.02492032      -0.00306800       0.01464252
C        0.50397066       1.29041921       0.01706932      -0.00424505       0.06647728       0.03226709
H        0.00116152      -0.54785297       1.02852996      -0.02067902       0.04167716       0.03221675
N        0.47528837      -0.84343784      -1.02395726      -0.03130342      -0.02336191      -0.01596895
H        0.43738862      -1.83385400      -0.81810527       0.04154953      -0.05108447      -0.04785803
H        1.51148324      -0.54359136      -1.17197516       0.01200950       0.04142243       0.00504748
N        0.06972084       2.02228166       1.25081528      -0.03840639       0.02674763      -0.02691947
O       -0.33160477       3.18269933       1.13984158       0.01057594       0.01812427       0.01177317
O        0.16962772       1.43204917       2.32828031       0.06315625      -0.04206702       0.00798905
C        0.20727680       2.08261624      -1.23651432      -0.00811693      -0.02801340       0.02599282
H        0.53103259       1.47220281      -2.07998459       0.00407017       0.04672973      -0.01231986
H       -0.85936406       2.29404770      -1.31482484       0.02418479      -0.00789592      -0.04872914
H        0.75901900       3.02600361      -1.23971003       0.00439403      -0.09242596       0.02109763
