12
Properties=species:S:1:pos:R:3:forces:R:3 Coordinates=T from=T ORCA-job=T run=T Energy:=T 48.7713886=T energy=-21375.87240494588 pbc="F F F"
C        1.02819947      -0.09743203       0.14095926       0.03185349      -0.01525038       0.00983628
H        0.99448711       1.87730761      -0.67168610       0.00665917       0.00638703       0.00137720
F       -1.56592091       0.07371539      -1.31617635      -0.01018237      -0.01109580       0.00550840
Cl       2.81452133       0.00706625       0.63566091      -0.00552372      -0.00779337      -0.00461970
C        0.43519032       1.30090287       0.06989662       0.00608849       0.00034923      -0.00213245
H        0.59141383      -0.63946821       0.98837994       0.00671499      -0.00478929       0.00695252
H       -0.59158935       1.11856514      -0.33451970      -0.00119433      -0.00573047      -0.01448593
N        0.89507927      -0.70823939      -1.13139876       0.00951515      -0.01199602      -0.01506973
H       -0.11424557      -0.51307578      -1.40082542      -0.01265644       0.03501391      -0.00911437
H        1.03643260      -1.70792406      -1.04093041      -0.00707008       0.00089786       0.01460849
C        0.42812512       1.99653982       1.34764740      -0.03156081       0.00200074      -0.01410462
N        0.39009678       2.56304237       2.37692262       0.00735646       0.01200655       0.02124390
