15
Properties=species:S:1:pos:R:3:forces:R:3 Coordinates=T from=T ORCA-job=T run=T Energy:=T 68.6174142=T energy=-77241.01228397943 pbc="F F F"
C        0.60309615       0.12984291       0.08035742       0.43459795       0.20389330      -0.20358863
H        1.59302135       1.96866488      -0.20005803      -0.02968539      -0.07689430       0.06877856
Br      -1.42336353      -0.39912385       0.60239838      -0.49830546      -0.05279330       0.43223547
H        2.16257112      -2.49760074      -0.46575304      -0.06147808       0.13051727       0.29742014
C        0.53858481       1.67663741      -0.08341726      -0.05690646       0.03319211       0.05168042
H        1.17803905      -0.12063687       1.01663124      -0.42620430       0.06868868      -0.69044149
N        1.01633809      -0.56695494      -0.98768526      -0.65173617       0.23473572      -0.52182332
H        0.32262583      -0.72362103      -1.75090884       0.76285607       0.58763980       0.85662160
H        1.62337919      -1.63524909      -0.62776719       0.59066605      -1.10045713      -0.31958828
C        0.01777410       2.36616098       1.10626090      -0.13196061      -0.18136354      -0.07888974
N       -0.45787914       2.90237814       2.03935675       0.16630226       0.10289680       0.00496434
C       -0.21470602       2.14501928      -1.33158037      -0.02093625       0.02813360       0.16100369
H        0.21786925       1.68880613      -2.23007749      -0.03589211       0.00812615       0.22262174
H       -1.26773822       1.86535771      -1.23668140       0.07662084       0.05031367      -0.12900015
H       -0.12529263       3.23427883      -1.39756558      -0.11793836      -0.03662883      -0.15199434
