13
Properties=species:S:1:pos:R:3:forces:R:3 Coordinates=T from=T ORCA-job=T run=T Energy:=T 30.3169490=T energy=-14629.448159000116 pbc="F F F"
C        1.06384587      -0.07760107       0.17072402       0.10687660      -0.08389555      -0.04110363
H        0.99174589       1.92829042      -0.63699470       0.10757899      -0.00036272       0.00880966
F       -1.32899010       0.44078576      -1.80528133       0.01918329      -0.00895072       0.03855726
F        2.46117092       0.06096480       0.41446567      -0.01317568       0.10433542       0.03154345
C        0.43475244       1.29109846       0.04939012      -0.00964993      -0.12543521       0.00709947
H        0.70363307      -0.57376767       1.07834655       0.00679893      -0.02828539       0.02200980
H       -0.57002184       1.17234107      -0.40511422      -0.07583080       0.01001780      -0.00774738
N        0.84548355      -0.78914053      -1.03089312      -0.01041250       0.00881410      -0.07004934
H       -0.00490615      -0.39188847      -1.50945826      -0.08218109      -0.10093049      -0.02340426
H        0.72118708      -1.77671632      -0.84590450      -0.00420413       0.12876197      -0.00723029
N        0.35342605       2.02129414       1.33947631      -0.11503420       0.04254477       0.04938679
O       -0.23712503       3.10488338       1.31542279       0.13780388       0.01707372       0.00778977
O        0.83713824       1.52693604       2.36148068      -0.06775334       0.03631230      -0.01566131
