15
Properties=species:S:1:pos:R:3:forces:R:3 Coordinates=T from=T ORCA-job=T run=T Energy:=T 88.7801503=T energy=-22443.349317180066 pbc="F F F"
C       -0.10083801      -0.07193758      -0.02419800      -0.04634702       0.03378328      -0.01152838
H        1.56539708       1.24043602       0.02709520      -0.00449291      -0.02071752       0.02489213
F       -1.50164187       0.01130042      -0.11238953       0.00829956      -0.03051428      -0.00815424
Cl       3.56019155      -0.36913289      -0.31782084      -0.03751752       0.02496059      -0.02872364
C        0.47216931       1.35026271      -0.00422981      -0.04419607       0.01107700      -0.03802485
H        0.08147311      -0.58046413       0.93118805       0.06615793       0.06223353       0.03352734
N        0.39550611      -0.75722492      -1.17520425      -0.04419348       0.03096888       0.03077797
H        0.16981173      -1.74239822      -1.09770198       0.01320847       0.00004932       0.02245216
H        1.41718910      -0.67959540      -1.14219558       0.05646986      -0.09308299      -0.03208527
C        0.03744724       2.06175309       1.19979249       0.00998807      -0.00586836       0.00098597
N       -0.31366630       2.66544050       2.14491342      -0.02881531      -0.00778557       0.02194820
C        0.04742130       2.11819587      -1.26318488      -0.00651454      -0.02027373      -0.04122534
H        0.37463308       1.55108828      -2.13254128       0.02526806       0.04586337      -0.05533440
H       -1.04052932       2.20271071      -1.29813203       0.01483480       0.03250148       0.00398370
H        0.48671588       3.11919553      -1.29294099       0.01785009      -0.06319500       0.07650865
