14
Properties=species:S:1:pos:R:3:forces:R:3 Coordinates=T from=T ORCA-job=T run=T Energy:=T 143.9776757=T energy=-26930.454191935245 pbc="F F F"
C        0.98385694      -0.08637754       0.01181446       0.02861161      -0.00615684      -0.00894720
H        1.75505234       1.87752409      -0.10159289      -0.04072406      -0.00290778       0.01600733
Cl      -2.10925561      -0.25278057      -0.08245451      -0.00556530      -0.00334754      -0.02413515
F        2.29583007      -0.27089908       0.46402617       0.03989727       0.00066135      -0.00007888
C        0.75253223       1.43375017      -0.05287457      -0.01292302      -0.01287227       0.00703574
H        0.32667478      -0.53536267       0.75284027       0.00134854       0.01438443      -0.02171639
N        0.90318811      -0.63127539      -1.31379246      -0.01714156      -0.01161903      -0.01159742
H       -0.09451864      -0.63565587      -1.53073238      -0.02634038      -0.00637635       0.00996615
H        1.18224437      -1.60486601      -1.24833641       0.01007959      -0.01678475       0.01608773
N        0.17700215       1.96844979       1.24048508       0.01851521       0.02477447       0.00075411
O       -0.49987516       2.98786711       1.18671191       0.00515823       0.00226376      -0.00907432
O        0.52874986       1.38737584       2.26168259      -0.00718106       0.00209290       0.00348323
C       -0.00153205       1.92687845      -1.20129853       0.00171770       0.00022227       0.00897505
N       -0.45298940       2.40271169      -2.17588875       0.00454725       0.01566538       0.01324002
