15
Properties=species:S:1:pos:R:3:forces:R:3 Coordinates=T from=T ORCA-job=T run=T Energy:=T 86.4164350=T energy=-17485.34927703247 pbc="F F F"
C        0.09222407      -0.08332537       0.38892438       0.00109915      -0.33481492      -0.23800283
H        1.17569844       1.14070673       1.84803960       0.03980201      -0.10145077       0.15832579
F       -1.17749720       0.01033086       1.25295836       0.11910928       0.13324566       0.09681384
H        2.09730465       0.00058495      -1.77995030       0.84516795       0.13392232      -0.29816551
C        0.89622814       1.15691811       0.80750300       0.18794211      -0.33249141      -0.74154714
H        1.76803344       1.34302259       0.14198900      -0.43502685      -0.51504957       0.36296568
N       -0.04070508      -0.29593139      -0.87565766      -1.25478334       0.54479982      -0.71518800
H       -0.38737187      -1.21101049      -1.14554452      -0.02056101      -0.00946223       0.56080278
H        1.37503475      -0.08473839      -1.47561200       0.64496537       0.07325909      -0.57313305
N        0.68971939      -1.30716442       1.14589378      -0.01857923      -0.39273520       1.09081498
O        0.67132928      -2.40546400       0.56791157       0.25106953       0.61599634       0.74479515
O        1.10728071      -1.09163341       2.29826961       0.17292516      -0.91420678      -0.49519386
N        0.06085762       2.34858139       0.62565685      -0.06324134       0.41689712       0.12331321
O       -0.48768387       2.50186313      -0.45594745      -0.21499592       0.50097135      -0.04155140
O        0.03447752       3.14472971       1.57043580      -0.25489286       0.18111917      -0.03504965
