15
Properties=species:S:1:pos:R:3:forces:R:3 Coordinates=T from=T ORCA-job=T run=T Energy:=T 121.9061247=T energy=-29434.679811101614 pbc="F F F"
C        0.01682668      -0.14088003      -0.02832003       0.01678816      -0.00065470       0.02741303
H        1.67533723       1.10849258       0.03818933       0.03072199      -0.01169052      -0.01090348
Cl      -1.77807577      -0.33135091       0.03888427       0.00809990      -0.00392435      -0.01339051
F        2.78552335       0.37964433      -0.29910795      -0.00948739       0.00787281       0.03900967
C        0.46755052       1.31456046       0.05157519      -0.05043294      -0.00084390       0.00565449
N        0.54985656      -0.73192360      -1.17511534      -0.03348634       0.01515515      -0.00845282
H        0.37361196      -1.72873783      -1.15832664       0.01177302      -0.01367844      -0.00148105
H        1.56471498      -0.52194057      -1.11661424       0.00342141      -0.00319978      -0.04024143
N        0.49186459      -0.89011553       1.27100772       0.02957808      -0.01101378       0.00245063
O        0.70989165      -0.24260903       2.28601192      -0.00636682       0.01270570       0.01481857
O        0.60281514      -2.10743717       1.15957809      -0.02238543       0.00436192      -0.00099386
C       -0.03394537       2.08853638       1.17317226       0.00906374      -0.00698942       0.01418197
N       -0.42431764       2.79023232       2.03408104       0.00803030      -0.00335781      -0.01635011
C        0.14860295       1.99991828      -1.19250629       0.03219803       0.01683318       0.00500258
N       -0.06087683       2.61747031      -2.17189933      -0.02751571      -0.00157606      -0.01671768
