14
Properties=species:S:1:pos:R:3:forces:R:3 Coordinates=T from=T ORCA-job=T run=T Energy:=T 171.0956513=T energy=-17134.572190025934 pbc="F F F"
C        1.11038352      -0.06057857      -0.12764540      -0.04522223      -0.00964887      -0.01870646
H        0.95110894       1.89643282       0.76431323      -0.01141602       0.01282159       0.01105307
F       -1.86192923      -0.08799511      -0.71081835       0.03169338      -0.08852792       0.05790208
F        2.47867506       0.09892684      -0.42098159      -0.03926035      -0.04007240      -0.06849884
C        0.44850919       1.29881619       0.00421888      -0.02876196       0.04141114       0.10519722
H       -0.59342753       1.09261116       0.27082034      -0.03446040       0.09236762      -0.02882884
N        0.43266801      -0.86787032      -0.97271256       0.09051265       0.01469339      -0.12335497
H       -0.70963686      -0.63665271      -0.90870851       0.02352780       0.00563935      -0.05948705
H        0.78610327      -1.81472671      -0.98376394      -0.04120330      -0.02502432       0.10574686
N        1.24602487      -0.66856426       1.33732966       0.01031545       0.06123558       0.04618563
O        0.80258527      -0.03979088       2.30022778       0.03854657      -0.01467429       0.02646818
O        1.75605178      -1.78591631       1.40949953      -0.01545042      -0.01862032      -0.05715326
C        0.43863876       2.00935885      -1.27225382      -0.13398901       0.06491779      -0.21215479
N        0.36182495       2.63040900      -2.26871523       0.15516785      -0.09651834       0.21563117
