16
Properties=species:S:1:pos:R:3:forces:R:3 Coordinates=T from=T ORCA-job=T run=T Energy:=T 97.7540370=T energy=-24946.70201229463 pbc="F F F"
C        0.01118980      -0.14679156      -0.06938852       0.00790560       0.03300706      -0.00245526
H        1.56916752       1.21062819      -0.15919318      -0.06524976      -0.04815883       0.01400515
Cl      -1.82879725      -0.24795456      -0.19304825      -0.00014617       0.01111248      -0.00471002
F        2.86706523       0.10580072      -0.37466470      -0.01349929      -0.01361617       0.01655772
C        0.46037279       1.32689136      -0.03689590      -0.02049688       0.02089008       0.00888669
N        0.61533691      -0.78377268      -1.18198193       0.01494609       0.00284093       0.01409366
H        0.45836904      -1.78424611      -1.12554355      -0.01809236      -0.03440673      -0.01950635
H        1.65339365      -0.56220124      -1.03567789       0.01377379       0.03364328      -0.01790369
C        0.29388722      -0.78462795       1.23962060      -0.00721726       0.01363826       0.00766249
N        0.48872136      -1.33898437       2.25957404       0.04629362       0.00205208      -0.03304403
C        0.12098817       2.04872148       1.26858031       0.02964048      -0.00936205      -0.00307547
H       -0.94164110       1.96488188       1.51948379       0.04490851       0.02017226      -0.04442289
H        0.71491342       1.61557194       2.07523632      -0.02898334       0.01093749       0.05412579
H        0.38067045       3.10745335       1.18769966      -0.01906410      -0.01763695      -0.01241422
C       -0.07833400       2.04472749      -1.19012557       0.02660914      -0.00117458       0.02799298
N       -0.48647321       2.72080208      -2.06180526      -0.01132806      -0.02393860      -0.00579255
