14
Properties=species:S:1:pos:R:3:forces:R:3 Coordinates=T from=T ORCA-job=T run=T Energy:=T 217.9144868=T energy=-80377.06279168943 pbc="F F F"
C       -0.10670470      -0.03683606      -0.12281862       0.00449489       0.00223459      -0.00690910
H        1.29914325       1.51437605      -0.54614637      -0.00636493      -0.00956665      -0.02160825
F       -1.48051157      -0.06972545      -0.43048171      -0.00032191      -0.01285373      -0.00656618
Br       3.60552884       0.19570472       0.28425240      -0.00400904       0.01238951       0.00457826
C        0.35076275       1.42228944      -0.01230107      -0.00085002       0.00839990       0.00193675
H       -0.41777226       1.99828983      -0.53422090      -0.00315576       0.00588539      -0.02820100
N        0.58910508      -0.67954050      -1.19120578      -0.00074466       0.01806991       0.00588971
H        0.38207645      -1.67179931      -1.19065295      -0.01013252      -0.02019101       0.00263587
H        1.59159030      -0.56162788      -1.02010033       0.01225457       0.00278589      -0.00426879
C       -0.02529036      -0.77866688       1.16924982      -0.00634320      -0.00366039       0.00052431
N        0.00301121      -1.46915754       2.12015153      -0.00997138       0.02513401       0.00132045
N        0.43184857       1.86835001       1.37704553      -0.00805873      -0.01055276       0.04694813
H        0.51965164       2.87875540       1.37480254      -0.00224232      -0.01679149       0.01421087
H        1.31180103       1.50864819       1.74041597       0.03544504      -0.00128316      -0.01049103
