14
Properties=species:S:1:pos:R:3:forces:R:3 Coordinates=T from=T ORCA-job=T run=T Energy:=T 195.0218391=T energy=-13082.652626482342 pbc="F F F"
C       -0.12324116      -0.09395732      -0.14538250       0.05088502      -0.01035643      -0.05718925
H        0.47093208       1.78555887      -0.87141865       0.00735136      -0.01894446       0.04723523
F       -1.25709839      -0.20201267      -1.01286314      -0.05453299       0.02198285      -0.00193970
F        3.12684808       0.62360366      -0.13734313      -0.00980274       0.05896388      -0.04339014
C        0.10696832       1.39372565       0.09341381       0.00039985      -0.00250379      -0.01630438
H       -0.86707663       1.84957159       0.30913667       0.03612330      -0.03463936       0.00656345
N        0.99590426      -0.69309944      -0.73228740       0.13768711       0.01207521       0.09064175
H        1.09177152      -1.66821684      -0.49595279      -0.12670272      -0.13971915       0.04027632
H        1.91265902      -0.18295377      -0.52710337      -0.00620362       0.03901372      -0.16158289
C       -0.58052560      -0.75682053       1.10802125      -0.07692189      -0.02197888       0.16885931
N       -0.93672789      -1.31648294       2.08016240       0.00714672       0.00677726      -0.13729205
N        1.02870801       1.55897780       1.21000830      -0.01268513       0.09739695      -0.12495944
H        1.11727640       2.55376300       1.39419995      -0.03053399      -0.05020201       0.03372880
H        1.94801199       1.24392295       0.83840860       0.07778972       0.04213420       0.15535298
