13
Properties=species:S:1:pos:R:3:forces:R:3 Coordinates=T from=T ORCA-job=T run=T Energy:=T 92.5068918=T energy=-33677.21750127518 pbc="F F F"
C       -0.01553723      -0.07532777       0.00908537       0.00827401      -0.00543888       0.00145805
H        1.69770253       1.17927806       0.20546014       0.04077291      -0.01396485      -0.00287698
Cl      -1.82611308       0.11969076      -0.21732310       0.03314120      -0.01025550      -0.00648905
Cl       3.63670631      -0.07681117      -0.81321814      -0.01327262       0.02946506       0.01361609
C        0.60970318       1.31674826       0.13498157       0.03272508       0.00878214      -0.00299442
H        0.40704084       1.84451812      -0.80006898      -0.01120122       0.01149122      -0.00199991
N        0.53864303      -0.71124452      -1.13396372      -0.00379857      -0.01690097       0.00812312
H        0.31614068      -1.69957589      -1.14134369      -0.01013409      -0.00106472       0.00453121
H        1.56763121      -0.59283437      -1.12867055      -0.03752506       0.01957951      -0.01873169
C        0.11947291      -0.82723682       1.27559645      -0.03141549      -0.01434042      -0.03011949
N        0.24104466      -1.47907989       2.24723554       0.00296667      -0.01298708       0.03575309
C        0.10045617       2.07639714       1.27139004      -0.01692468      -0.01549477       0.01830990
N       -0.29891122       2.69051807       2.18973907       0.00639186       0.02112926      -0.01857992
