16
Properties=species:S:1:pos:R:3:forces:R:3 Coordinates=T from=T ORCA-job=T run=T Energy:=T 124.4760966=T energy=-15151.24799489839 pbc="F F F"
C       -0.05817185      -0.13408567       0.09313843       0.00519499       0.01396888      -0.00041995
H        1.62018932       1.14984661       0.02884153      -0.02111707       0.00628797       0.00651883
F       -1.47919210      -0.02855565       0.07607073      -0.00827184       0.02297684      -0.03298016
F        2.63701667       0.31864826      -1.38054737      -0.02309825      -0.01679847      -0.02666421
C        0.52649149       1.28905509       0.06636429      -0.01351506       0.01226044      -0.00278253
N        0.41307233      -0.85176318      -1.01054845      -0.01663267      -0.00112286       0.01384844
H        0.39176663      -1.84851134      -0.84091069       0.00706719       0.00618833      -0.00745103
H        1.39790618      -0.48702826      -1.26729218       0.01930158      -0.01714435       0.00020218
C        0.20253275      -0.79088209       1.40780757      -0.00564698       0.01780456       0.01729790
N        0.41454331      -1.36334796       2.41307676       0.03231781      -0.02330811       0.01518981
C        0.09914215       2.05016545       1.23856109       0.01750188      -0.04319436      -0.00453237
N       -0.22264279       2.69786696       2.16539078      -0.03107750       0.03385687       0.02819418
C        0.15500322       2.00609760      -1.23903795       0.01844847       0.02199124      -0.00492887
H        0.73677442       1.52821053      -2.02363883      -0.02911834      -0.00527769      -0.01882279
H       -0.91854836       1.95462120      -1.43207257       0.03386797      -0.05412500      -0.01754831
H        0.45552663       3.05513245      -1.17998313       0.01477780       0.02563573       0.03487888
