15
Properties=species:S:1:pos:R:3:forces:R:3 Coordinates=T from=T ORCA-job=T run=T Energy:=T 115.7522709=T energy=-29434.29481932751 pbc="F F F"
C        0.04145658      -0.06882538       0.04149352      -0.72709525      -0.06105693      -0.05137994
H        2.18940625       1.13119342      -0.20761245      -2.57570541       1.85036964       0.60878588
Cl      -1.88839803      -0.10335804      -0.04282149       0.05184681      -0.38563052      -0.15947727
F        2.86777496       0.56527274      -0.32567611       3.19008453      -2.06172592      -0.56364667
C        0.40385279       1.36053038       0.01771747       0.32676027      -0.59918880      -0.26141118
N        0.50319129      -0.79629321      -1.10438554      -1.23655228       1.09242261      -0.39448950
H        0.16363543      -1.72131144      -1.07752325      -0.60917157      -1.17149161       0.05414371
H        1.48448305      -0.81979777      -1.13847683       1.55579742       0.34134310       0.12586930
C        0.24948199      -0.84029599       1.27881938       0.09769573       0.11213578       0.19112492
N        0.35891612      -1.65433527       2.12293791       0.15097508      -0.05055416      -0.06321810
N        0.11311204       2.04396765       1.21200682       0.01883375       0.37307122       0.19570670
O       -0.17642562       3.23758348       1.15648703      -0.11856483       0.92510896      -0.18325490
O        0.20151280       1.43534636       2.28220582       0.02040223      -0.36119854       0.47967184
C        0.10654702       2.05221771      -1.18782132      -0.31559935      -0.08544726       0.06477168
N       -0.15340667       2.58580536      -2.20705097       0.17029289       0.08184243      -0.04319647
