16
Properties=species:S:1:pos:R:3:forces:R:3 Coordinates=T from=T ORCA-job=T run=T Energy:=T 58.7506674=T energy=-11643.85327800278 pbc="F F F"
C        0.01078865      -0.02981466      -0.01918869      -0.01631469       0.01110771      -0.01318337
H        1.53170448       1.38499502      -0.21584877       0.01288222      -0.01816113       0.01741768
F       -1.40238193      -0.05919900      -0.15611028      -0.00010885      -0.01132211      -0.00519815
F        2.95944752      -0.14581134      -0.07602718       0.00791636       0.00948938      -0.01770325
C        0.47296269       1.41926578       0.05474257       0.00359747       0.00496925       0.00354959
H       -0.10336474       1.96932447      -0.69489893       0.00584147      -0.01115116      -0.00882273
N        0.59333439      -0.57686761      -1.21662400      -0.00510110      -0.00158851      -0.01680551
H        0.34419840      -1.56226581      -1.25110193       0.01079216      -0.01119518      -0.00278874
H        1.61977532      -0.51890616      -1.00163707      -0.00662195      -0.00711211       0.01150219
C        0.35059237      -0.81880791       1.23394013      -0.00782720       0.01329514      -0.01005756
H        1.44244966      -0.79525857       1.30035584      -0.00461995       0.00371660      -0.00796311
H       -0.13740994      -0.39422117       2.11463294       0.02471955       0.01138679       0.01955625
H        0.01165457      -1.85286412       1.10406305      -0.00791003       0.00394707       0.00237872
N        0.24114349       2.02864262       1.38131051      -0.00762277       0.00497991       0.01174590
H        0.36088146       3.03116405       1.27851377      -0.00029331       0.00755392       0.00367956
H        1.00910360       1.72439441       1.97238803      -0.00932937      -0.00991556       0.01269251
