18
Properties=species:S:1:pos:R:3:forces:R:3 Coordinates=T from=T ORCA-job=T run=T Energy:=T 184.6042558=T energy=-13712.463180061925 pbc="F F F"
C        1.19227927      -0.02579186       0.04691117       0.06042267      -0.16551376      -0.08206398
H        1.71634477       2.02492118       0.01093416      -0.05045535       0.04232236       0.00628382
F       -1.64839100      -0.19161139      -0.05880367       0.03935577      -0.04265081       0.03348722
F        2.61419267      -0.02925046      -0.00821957       0.05316940       0.01533718      -0.03876873
C        0.76606998       1.47622345       0.00740819      -0.04960622      -0.22988962      -0.02289146
N        0.71709903      -0.69284788      -1.12716582      -0.00884114       0.15968586      -0.18579858
H       -0.31698141      -0.67812919      -0.97923164      -0.08044206       0.03127192       0.00646168
H        1.04946215      -1.65267566      -1.11862221      -0.05434478       0.00243866       0.16804743
C        0.81391224      -0.74102658       1.32923137       0.01707060      -0.03458461       0.00647583
H        1.11693062      -1.78857563       1.21697050       0.08297776       0.06124537       0.11673224
H        1.30165597      -0.31098343       2.20896796      -0.02200189      -0.02701872       0.03849585
H       -0.27564398      -0.69220710       1.37503635       0.00143406      -0.07353789       0.02970243
C       -0.13251494       1.93631125       1.16753669       0.03591095       0.03106807      -0.15908605
H       -1.02271250       1.30324087       1.10063136      -0.04410602       0.06707556       0.09572197
H        0.37823617       1.86334159       2.13558480      -0.06226822      -0.10914635      -0.13890296
H       -0.40182414       2.98194690       1.00587137      -0.05518811       0.10042299       0.04784572
C        0.09600494       1.81805353      -1.25982818       0.09885254       0.17644694       0.08842760
N       -0.40783983       2.26790039      -2.22154281       0.03806002      -0.00497316      -0.01017003
