18
Properties=species:S:1:pos:R:3:forces:R:3 Coordinates=T from=T ORCA-job=T run=T Energy:=T 174.2648460=T energy=-11015.844376218522 pbc="F F F"
C        1.13349575      -0.11866287      -0.06693267       0.00244156      -0.02850352       0.01392619
H        1.87268873       1.91366169       0.01542013       0.00511150       0.00832103      -0.00801104
F       -1.77593305       0.12397009      -0.04797298      -0.00792175       0.00798098      -0.01543745
H        2.21185192      -0.24470626      -0.25422468       0.00413508       0.00095304       0.00255220
C        0.88476111       1.43301393      -0.03605350      -0.00494751      -0.02280193      -0.00835215
N        0.41197639      -0.72215985      -1.18876677       0.01812061       0.01564168       0.01685345
H       -0.58941088      -0.55513444      -0.92469290       0.00167866      -0.01211276       0.00034239
H        0.58162517      -1.72353059      -1.13637313      -0.00298024      -0.01187383      -0.00252653
C        0.77955042      -0.77475355       1.27310267      -0.01563847      -0.00678510      -0.00127163
H        1.28716369      -0.31524283       2.13017938      -0.00181865      -0.00370303      -0.02026607
H       -0.30520941      -0.67648702       1.37204868      -0.00458924       0.00279216       0.00924603
H        1.05171080      -1.83839294       1.24265781       0.00421896       0.03418049      -0.00545759
C        0.19598856       1.89433169       1.17848512      -0.00760698       0.00077969       0.04086504
N       -0.24685540       2.36494087       2.16063607       0.01550566       0.00348289      -0.00689707
C        0.13245016       1.97306983      -1.26094175       0.00657633       0.01038675      -0.00150091
H        0.62266259       1.63105173      -2.17269053      -0.01825400      -0.00068023      -0.02051705
H       -0.88000804       1.56793609      -1.19997078       0.01448304      -0.01846830      -0.01048557
H        0.11738151       3.06826442      -1.23856018      -0.00851458       0.02041001       0.01693776
