15
Properties=species:S:1:pos:R:3:forces:R:3 Coordinates=T from=T ORCA-job=T run=T Energy:=T 40.0110606=T energy=-77244.96776945787 pbc="F F F"
C        1.13514313      -0.15786439      -0.14094589       0.01652253      -0.03431631       0.02516689
H        1.12288707       1.86145619       0.73015350       0.02357025       0.01253831       0.02267850
Br      -2.64379782      -0.19299721       0.88051539      -0.00836573       0.00160398      -0.00822692
H        2.15977866      -0.11676122      -0.53674776      -0.00674284       0.00896573      -0.00972053
C        0.59379006       1.29154712      -0.04154352       0.00785000      -0.02172637       0.01395773
H       -0.46600837       1.23203455       0.23850448      -0.01593522       0.01212778      -0.00403741
N        0.34933080      -1.00836027      -1.02984957       0.00535793       0.02162628       0.02293948
H        0.29205742      -0.56856300      -1.94317330      -0.01082245      -0.01636518      -0.02740094
H       -0.60196486      -1.04011647      -0.65830452       0.01775213       0.01547044       0.00374322
C        1.15941513      -0.78055361       1.25048091       0.00757762      -0.02139427       0.01699998
H        1.82466675      -0.23000267       1.92424259      -0.00973218       0.02610310      -0.01289234
H        0.14765872      -0.77974182       1.66505795       0.00808274      -0.01340005      -0.01407943
H        1.51084313      -1.81244386       1.17678733      -0.01331051      -0.01023427       0.00016162
C        0.74478965       1.99175447      -1.31470335      -0.01631650       0.02072241      -0.01975253
N        0.91261038       2.51776216      -2.35263421      -0.00548783      -0.00172157      -0.00953733
