17
Properties=species:S:1:pos:R:3:forces:R:3 Coordinates=T from=T ORCA-job=T run=T Energy:=T 220.6469180=T energy=-21249.277709869628 pbc="F F F"
C        1.17111724      -0.07261503      -0.11672580       0.01438129      -0.05149236       0.01300220
H        1.86112796       1.91623868       0.33565030       0.01853728       0.02968677       0.00187217
Cl      -2.60439295      -0.29151295       1.08398969      -0.03373710      -0.02360056       0.02445082
H        2.11792950      -0.19317635      -0.66531939       0.02125069       0.00767134      -0.02277043
C        0.92637947       1.46622057      -0.02943916       0.03302786      -0.04656970      -0.00926057
N        0.15619339      -0.84622970      -0.81016647      -0.01053360       0.04347821      -0.07328447
H        0.02173828      -0.49061228      -1.75006626       0.00054248       0.02722794      -0.02001124
H       -0.73653992      -0.77233492      -0.31953335       0.00466604      -0.04047215       0.04538614
C        1.32920162      -0.64965401       1.28697858      -0.01106941      -0.00716837       0.00560614
H        2.01056206      -0.05243849       1.90612184      -0.01250167      -0.02457331      -0.03869350
H        0.34680848      -0.69435856       1.76615106       0.05149713       0.00405633       0.02171777
H        1.71877244      -1.66820943       1.20957461      -0.03609701       0.03004147       0.04249324
N       -0.15241498       1.93401814       0.82856064      -0.00245062       0.02452390      -0.01648791
H        0.11463715       1.74555296       1.78763886      -0.02597449       0.02331486       0.02910279
H       -0.99796363       1.37928031       0.67725266      -0.02240913      -0.00714390       0.00269230
C        0.73200677       1.98042890      -1.39896697      -0.01112836       0.00526086       0.01445157
N        0.60229713       2.33090216      -2.51315084       0.02199862       0.00575869      -0.02026700
