18
Properties=species:S:1:pos:R:3:forces:R:3 Coordinates=T from=T ORCA-job=T run=T Energy:=T 104.0450877=T energy=-14499.886372643276 pbc="F F F"
C        0.04456829      -0.07405217       0.03219957       0.01576946       0.03264967       0.01777907
H        1.61781854       1.33400960      -0.12773868      -0.00694540      -0.02228355      -0.00624108
F       -1.35213938      -0.11181475       0.09765952       0.02316306       0.03432996       0.02560779
H        2.98776249      -0.87993176       0.06576302       0.00479190       0.02539256      -0.01394875
C        0.53258000       1.38199806       0.00715197      -0.01112019       0.03990969      -0.05292848
N        0.41755367      -0.69446743      -1.21629028      -0.01868717      -0.00538690       0.07289200
H        0.00892073      -1.62560683      -1.21250300      -0.00025310      -0.01699724       0.00023355
H        1.43990030      -0.83092607      -1.12519616      -0.01879467       0.03177568      -0.00128963
N        0.54009668      -0.65093040       1.25474693       0.00287863      -0.02713893      -0.02936262
H        1.55690215      -0.80161094       1.05552469       0.00906285       0.00554467       0.00691850
H        0.12480924      -1.57641177       1.32612220       0.01321021      -0.04797533      -0.00605324
C        0.13202699       2.17840623       1.23688409      -0.00660024      -0.02091019      -0.00706291
H       -0.92285120       2.02370954       1.45878510      -0.04034968       0.01075980      -0.04382905
H        0.71968350       1.82857914       2.08309864       0.01413130      -0.00915188       0.01456124
H        0.31027510       3.24666597       1.07871417       0.02624769      -0.02268876       0.01571564
N       -0.00459651       2.06345709      -1.21345790      -0.02714398      -0.00796054      -0.01307950
O       -1.19390696       2.38583182      -1.19708078      -0.04162625       0.02699411      -0.02008729
O        0.76399637       2.28722466      -2.14795311       0.06226556      -0.02686281       0.04017475
