19
	Energy:    1371.8050936
C          0.00783        0.01920       -0.23609
C          1.53506        0.03455       -0.18155
C          2.25656        1.28799        0.32077
O          2.86838        0.58216        1.39148
C          2.20050       -0.58438        0.98870
C          1.82187       -1.79594        1.81504
C          2.13194       -2.65932        0.58996
C          2.88227       -1.46373       -0.03681
O          2.22963       -0.79052       -1.09625
H         -0.41881        0.49347        0.67312
H         -0.33221        0.58086       -1.13052
H         -0.36724       -1.02273       -0.30447
H          2.99951        1.67668       -0.40973
H          1.56009        2.05273        0.73123
H          2.61884       -1.93780        2.57906
H          0.79399       -1.84069        2.23228
H          2.72164       -3.57674        0.79954
H          1.20089       -2.85208        0.01064
H          3.98603       -1.37882        0.08251
