19
	Energy:    2235.0628748
C          1.07989       -0.35693       -0.19477
O         -0.18315        0.18594        0.09268
C         -0.11053        0.74064        1.38171
C         -1.54887        0.64301        1.81409
C         -1.74251        2.13385        1.55757
C         -0.23175        2.16342        1.74330
C          0.66446        3.24437        1.15961
O         -0.02763        1.82718        3.11316
C         -0.43475        0.49451        2.81780
H          1.34490       -1.16862        0.52025
H          1.04209       -0.81313       -1.20518
H          1.86177        0.43557       -0.22224
H         -2.20074       -0.24781        1.68858
H         -2.05250        2.30991        0.50301
H         -2.31910        2.71262        2.31114
H          0.41917        4.22192        1.62391
H          1.72886        3.00077        1.36023
H          0.50737        3.31046        0.06269
H          0.23137       -0.36485        3.04451
