19
	Energy:      31.1590737
C          5.48257       -1.62062       -2.95886
C          4.66760       -1.37297       -1.68882
C          4.80197        0.07494       -1.20061
C          3.95725        0.32697        0.01879
O          4.48176        0.60135        1.08682
C          2.52267        0.28834       -0.08729
C          1.32591        0.24825       -0.20211
C         -0.13632        0.19484       -0.33629
O         -0.76700        0.77024        0.78312
H          5.36835       -2.67833       -3.27879
H          5.12692       -0.96657       -3.78359
H          6.56090       -1.42288       -2.77992
H          3.60077       -1.60259       -1.90163
H          5.02303       -2.06171       -0.89004
H          5.87132        0.28317       -0.96528
H          4.47772        0.78287       -1.99556
H         -0.43567        0.76481       -1.23622
H         -0.45290       -0.85973       -0.46350
H         -0.40698        0.32307        1.59419
