19
	Energy:    1331.2778501
O         -0.95807        5.12460        0.21821
C         -0.45917        4.33877       -0.83260
C         -0.80024        2.86686       -0.62501
O         -0.16641        2.42824        0.55417
C         -0.60146        1.13017        0.85288
C         -0.42533        0.90228        2.34374
C         -1.82756        0.93038        1.74081
C         -0.04094        0.03184        0.05205
C          0.38169       -0.82706       -0.68116
H         -0.56011        4.78336        1.06188
H         -0.92242        4.68680       -1.77969
H          0.64229        4.47041       -0.92386
H         -1.90879        2.76985       -0.55958
H         -0.41740        2.29554       -1.50149
H         -0.23998       -0.12611        2.71980
H         -0.33875        1.79908        2.99923
H         -2.29856       -0.04658        1.49276
H         -2.40067        1.88394        1.76731
H          0.73144       -1.58448       -1.33034
