19
	Energy:    2676.2374787
O          0.41907       -0.29857        0.50105
C         -0.66617        0.47417        0.92310
C         -1.98452        0.20618        0.20249
O         -3.07676        0.61212        1.01042
C         -3.14021        2.02075        0.96541
C         -2.06214        2.47481        0.00203
C         -2.66041        2.96300       -1.31603
C         -1.83739        3.90662       -0.43549
C         -1.10686        1.34171       -0.26248
H          0.32630       -1.15843        0.98532
H         -0.47737        1.19853        1.74487
H         -1.96360       -0.83425       -0.18651
H         -4.16085        2.36407        0.68941
H         -2.88566        2.40559        1.97566
H         -2.07361        2.92449       -2.25907
H         -3.65656        3.45417       -1.34690
H         -0.73997        3.99204       -0.58778
H         -2.34706        4.52820        0.33173
H         -0.82115        1.07804       -1.30528
