19
	Energy:     126.4098429
C          1.45464       -0.01326       -0.04469
O          0.03986        0.01551        0.01274
C         -0.47311        0.68899        1.16070
C         -2.00200        0.61264        1.12121
C         -0.03829        2.12054        1.24188
C          0.65351        2.37265        2.41095
C          0.76812        1.16081        3.27120
C          0.04404        0.13711        2.46172
O         -0.10790       -1.02079        2.81981
H          1.88665       -0.62395        0.77624
H          1.74953       -0.50637       -0.99339
H          1.89321        1.00669       -0.07452
H         -2.44967        1.12965        1.99838
H         -2.38485        1.09186        0.19453
H         -2.33282       -0.44811        1.12911
H         -0.23504        2.87035        0.48658
H          1.05809        3.34256        2.66755
H          1.83083        0.87645        3.42072
H          0.26665        1.32338        4.24824
