19
	Energy:     769.5577499
C         -2.81157        0.83837       -0.93915
C         -2.25983        0.16427        0.31156
C         -2.81549        0.60404        1.62073
C         -2.11410       -0.18604        2.49249
C         -1.24793       -0.97524        1.56553
C         -0.76052        0.17219        0.64954
O          0.03927       -0.27117       -0.41778
C         -2.30861       -1.35943        0.50697
O         -1.77335       -2.06451       -0.58471
H         -2.31838        0.42402       -1.84305
H         -3.90509        0.66074       -1.01174
H         -2.62100        1.93117       -0.89348
H         -3.56968        1.34492        1.85082
H         -2.18619       -0.21361        3.57136
H         -0.56594       -1.70914        2.04443
H         -0.32675        1.09603        1.10466
H          0.85554       -0.65521       -0.00491
H         -3.27341       -1.81928        0.83328
H         -1.43445       -2.92083       -0.21581
