19
	Energy:     170.3552817
C          4.42556       -0.07614       -2.10121
C          3.39190       -0.03336       -1.02604
C          3.63485        0.04001        0.33044
C          2.39472        0.05536        0.93115
C          2.16390        0.12793        2.40952
C          1.46563       -0.00980       -0.10102
C         -0.03122       -0.02291        0.00050
O         -0.54099       -1.18761       -0.58710
O          2.09786       -0.06150       -1.25345
H          5.44650       -0.04069       -1.66547
H          4.31383       -1.01396       -2.68383
H          4.29110        0.79325       -2.77761
H          4.59873        0.07743        0.82156
H          2.64242       -0.74544        2.89972
H          2.61786        1.05930        2.80766
H          1.08819        0.12577        2.66779
H         -0.39627        0.06401        1.04476
H         -0.43062        0.85427       -0.54948
H         -0.37755       -1.92499        0.05772
