19
	Energy:    1484.8304607
C          0.15912        0.06312       -0.34178
C          1.46580       -0.25428        0.37976
C          1.24305       -0.89962        1.76153
C          2.60904       -1.43872        2.23819
C          3.79051       -0.67519        1.58850
C          3.51646        0.51093        0.66220
O          2.18483        0.93317        0.60381
C          3.60402       -0.84291        0.04007
O          2.27900       -1.11032       -0.39432
H         -0.46055        0.75335        0.26958
H          0.37399        0.54559       -1.31887
H         -0.41379       -0.87092       -0.52361
H          0.86620       -0.10348        2.44129
H          0.51088       -1.73636        1.75707
H          2.66163       -1.47909        3.34625
H          2.70753       -2.48731        1.87598
H          4.82542       -1.01990        1.79393
H          4.35505        1.23754        0.60867
H          4.34343       -0.66190       -0.76855
