19
	Energy:    1788.5502118
C          0.87289        3.93874        1.88716
C          1.47608        2.81774        2.71660
C          0.46914        1.80648        2.16119
C         -0.10843        2.95427        1.28838
C          0.46746        1.71987        0.65070
C         -0.31327        0.59849        0.07526
O          0.67881       -0.32659       -0.24914
C          1.87832        0.42763       -0.38730
O          1.71538        1.76127        0.05697
H          0.32211        4.68507        2.49863
H          1.56069        4.36250        1.12360
H          2.50662        2.57556        2.37553
H          1.38343        2.94623        3.81647
H         -0.44343        1.64007        2.77466
H         -0.93774        3.25940        0.61577
H         -1.05820        0.17667        0.78418
H         -0.81165        0.92779       -0.86228
H          2.67611       -0.05436        0.21687
H          2.17088        0.43984       -1.45858
