19
	Energy:    1847.7795879
C         -0.85910       -1.27642       -0.23782
C         -0.54900       -0.51190       -1.50546
O         -1.74154        0.00984       -2.04435
C         -1.54180        1.38803       -2.26142
C         -1.51358        2.08864       -0.90712
C         -0.42187        1.50360        0.00259
C          1.05373        1.63727       -0.38658
O          1.28066        0.23437       -0.29811
C         -0.09536        0.03879       -0.13034
H         -1.80208       -1.08361        0.31630
H         -0.14131       -2.03931        0.13052
H          0.04005       -1.20559       -2.14295
H         -0.62394        1.58409       -2.86301
H         -2.39406        1.78283       -2.85364
H         -1.39223        3.18787       -1.00766
H         -2.49411        1.88865       -0.42231
H         -0.54609        1.77236        1.07419
H          1.21075        1.96442       -1.43840
H          1.64312        2.21114        0.36154
