19
	Energy:     163.1272977
C          1.61612       -0.88737       -0.54913
C          0.86384        0.20706        0.19927
C          1.58091        1.51674        0.08525
C          1.07286        2.67119       -0.47635
C          2.07644        3.60634       -0.35732
C          2.02749        5.03057       -0.81562
O          1.79419        5.08952       -2.19591
C          3.13332        2.97524        0.26752
O          2.80541        1.72704        0.51924
H          1.06956       -1.84882       -0.45022
H          1.69510       -0.63125       -1.62746
H          2.63652       -1.01440       -0.12820
H         -0.16007        0.29627       -0.22430
H          0.78055       -0.06768        1.27219
H          0.09451        2.81251       -0.91712
H          1.20033        5.55283       -0.29107
H          2.97021        5.56630       -0.56126
H          2.65304        4.86117       -2.63904
H          4.08729        3.41980        0.51867
