19
	Energy:     108.7740152
C          2.27480       -0.63197       -1.18896
C          1.55252        0.16846       -0.10751
O          1.81206       -0.47338        1.13808
C          1.46983        0.36816        2.21542
C          2.43604        1.56032        2.28527
C          3.81947        1.13772        2.68885
O          4.32739        1.57609        3.70855
C          2.49399        2.23205        0.94147
C          2.04825        1.60844       -0.15871
H          1.91042       -1.68136       -1.18770
H          2.07895       -0.19579       -2.19223
H          3.37075       -0.63533       -1.00302
H          0.46467        0.14058       -0.33872
H          0.41920        0.72394        2.09709
H          1.49616       -0.20568        3.16636
H          2.02054        2.26854        3.03591
H          4.37588        0.43719        2.07341
H          2.89785        3.23716        0.86400
H          2.05634        2.13688       -1.10778
