19
	Energy:     533.5600467
C          1.97287       -0.89284        1.39873
C          1.51083       -0.14062        0.14805
C          2.12866       -0.68022       -1.16702
C          1.44061       -0.04933       -2.42351
C          1.00062       -1.42368       -2.68408
O          0.32163       -1.87242       -3.59375
C          1.62106       -2.10588       -1.54404
C          3.64308       -0.59331       -1.18344
O          4.23542        0.09316       -2.00136
H          1.70417       -1.96766        1.33238
H          3.06871       -0.79759        1.54017
H          1.47441       -0.46095        2.29199
H          0.40197       -0.21544        0.09561
H          1.77580        0.93333        0.25951
H          0.55108        0.58939       -2.23282
H          2.09760        0.27296       -3.25914
H          0.82688       -2.53682       -0.89726
H          2.38572       -2.81791       -1.92383
H          4.22056       -1.15237       -0.45554
