19
	Energy:    1431.5549928
O          0.76606        0.11773        0.84681
C         -0.62211        0.32515        0.89734
C         -1.16494        1.79988        0.90319
C         -2.38880        1.12066        1.59291
C         -1.32309        0.22323        2.29704
C         -0.50624        1.16630        3.35498
C         -1.08260        2.58560        3.39922
C         -0.35916        2.64366        2.04925
O          0.56862        1.72979        2.61639
H          1.07709        0.58322        0.02808
H         -1.11733       -0.32540        0.12871
H         -1.31491        2.34416       -0.05237
H         -3.13598        1.70092        2.16374
H         -3.00687        0.53643        0.86133
H         -1.62794       -0.76527        2.69934
H         -0.24691        0.71153        4.33433
H         -2.14952        2.83046        3.55660
H         -0.50070        3.18309        4.14074
H          0.04356        3.63465        1.75105
