19
	Energy:     613.1035737
C         -0.53906        1.92254       -1.47292
C         -0.80470        1.48477       -0.03138
C         -2.16396        0.80152        0.12555
C         -2.62394        0.57162        1.58573
C         -2.82632       -0.89956        1.24174
C         -1.88391       -0.70406        0.05989
O         -0.55284       -0.82619        0.42400
C          0.09446        0.35254        0.33201
O          1.30532        0.44833        0.45332
H         -0.63142        1.06535       -2.17506
H         -1.27098        2.70404       -1.76771
H          0.48313        2.34942       -1.55837
H         -0.72891        2.35873        0.65132
H         -3.03797        1.15490       -0.46797
H         -1.76130        0.64187        2.28914
H         -3.50670        1.13454        1.95677
H         -2.58996       -1.67164        2.00457
H         -3.85732       -1.02100        0.83529
H         -2.08751       -1.26731       -0.87602
