19
	Energy:    1393.2121005
O          2.73001        2.52539        1.55123
C          2.74257        1.34363        2.31082
C          3.15617        0.10879        1.48416
C          4.57822       -0.42204        1.64872
C          3.38572       -1.17872        2.28805
C          2.56073       -0.04087        0.07627
O          3.20221        0.82258       -0.83752
C          1.10656        0.21081        0.10588
C         -0.06964        0.47284        0.15242
H          1.82907        2.60727        1.13191
H          3.43337        1.49825        3.15393
H          1.72451        1.16856        2.72390
H          5.00993       -0.90137        0.74429
H          5.22266        0.13798        2.35754
H          3.10343       -2.13082        1.78890
H          3.31540       -1.08325        3.39464
H          2.72261       -1.05900       -0.29819
H          3.33893        1.71042       -0.42891
H         -1.10015        0.73133        0.12024
