19
	Energy:     614.1581057
O          1.79069       -0.03997        3.41286
C          1.74719       -0.05821        2.19320
C          1.96468       -1.35099        1.47395
C          0.83745       -1.69481        0.49331
C          0.47299       -0.59686       -0.54069
C         -0.26677        0.60048        0.07691
C          1.07605        1.30822        0.23386
C          1.63104        0.36635       -0.85438
O          1.56225        1.10984        1.52399
H          2.91908       -1.26253        0.91633
H          2.09587       -2.18876        2.19364
H          1.19532       -2.58657       -0.06598
H         -0.08733       -1.99312        1.03317
H         -0.08214       -1.05773       -1.38725
H         -0.82185        1.11367       -0.74379
H         -0.92361        0.45234        0.96128
H          1.08967        2.39507        0.00381
H          1.40366        0.83871       -1.83933
H          2.69283        0.04700       -0.85058
