19
	Energy:    3029.5882533
O          1.38175        0.36118        0.46149
C          0.17684        0.08977       -0.20082
C         -0.60352        1.38327       -0.43433
C         -1.92024        1.08993       -1.15857
C         -1.84649        1.04794       -2.66591
C         -3.14715        0.85608       -3.43247
O         -4.29897        0.69289       -2.63973
C         -3.77382        1.99585       -2.73039
C         -2.50655        2.24997       -1.92644
H          1.15628        0.49527        1.41908
H          0.41366       -0.38531       -1.17681
H         -0.42868       -0.64023        0.38423
H         -0.83778        1.85307        0.54480
H          0.02914        2.08939       -1.01741
H         -2.65874        0.40796       -0.68403
H         -0.99145        1.48689       -3.22984
H         -3.27065        0.93495       -4.53408
H         -4.24917        2.70734       -3.43952
H         -1.89872        3.13610       -2.22169
