19
	Energy:     862.3006056
C          1.70772       -0.63326       -0.76593
C          2.68701        0.15855       -1.61577
C          2.92009        1.10312       -0.40232
C          1.44783        0.80492       -0.32061
O          0.55179        1.05576        0.73380
C         -0.62169        1.52255        0.06510
C         -0.47749        1.20771       -1.43831
C          0.99323        1.49326       -1.54873
O          1.81471        0.86325       -2.50504
H          0.94480       -1.22427       -1.31521
H          2.19118       -1.24731        0.03120
H          3.53784       -0.34035       -2.12576
H          3.51041        0.62857        0.41772
H          3.26509        2.14315       -0.60643
H         -1.54797        1.06950        0.47701
H         -0.66538        2.62635        0.20623
H         -0.70361        0.13339       -1.60073
H         -1.13051        1.80091       -2.11246
H          1.16646        2.59800       -1.50573
