19
	Energy:    1382.8918404
O          1.49538        0.81031       -0.28858
C          0.61118        0.11166        0.54553
C         -0.41610        1.06970        1.16642
C         -1.39894        0.36648        2.03310
C         -2.68661        0.58206        1.61278
C         -2.74664        1.43595        0.39320
O         -3.52524        2.60289        0.40114
C         -2.06634        0.97196       -0.87787
C         -1.27902        1.81290        0.12718
H          2.14430        1.27018        0.30565
H          0.11059       -0.67627       -0.05397
H          1.17873       -0.41702        1.34549
H          0.11527        1.81845        1.79238
H         -1.14198       -0.23216        2.89722
H         -3.55340        0.15962        2.10270
H         -3.17563        3.18230        1.12814
H         -1.98864       -0.13548       -0.85851
H         -2.55996        1.49546       -1.72438
H         -0.83999        2.60769       -0.51276
