19
	Energy:     767.5328478
C         -0.01447        0.26797        0.04044
C          1.48831       -0.06827        0.04902
C          1.92978       -1.15329        1.02609
O          3.32438       -1.13600        0.85752
C          3.36268       -1.36195       -0.53816
C          3.49679       -2.85031       -0.73569
O          2.35717       -3.36009       -0.08493
C          1.49118       -2.23730        0.01720
C          1.92565       -1.14627       -0.92799
H         -0.25471        0.87180        0.94037
H         -0.24500        0.87389       -0.86066
H         -0.68084       -0.61614        0.03754
H          2.08339        0.87479        0.05948
H          1.62425       -1.17228        2.09341
H          4.10218       -0.70514       -1.04495
H          3.47504       -3.12186       -1.81507
H          4.42948       -3.22375       -0.26181
H          0.40979       -2.48551       -0.02704
H          1.69060       -1.18507       -2.01430
