19
	Energy:     794.4093792
O          1.80542        0.29960       -0.01098
C          0.40672        0.36920        0.02278
C         -0.11582        1.04821       -1.26579
C         -0.10440        0.23439       -2.57662
C         -0.61244        1.29654       -3.49521
C         -1.66406        1.81499       -2.77939
C         -1.63180        0.98843       -1.53650
C         -1.46416       -0.39345       -2.21034
O         -1.35089       -1.46491       -1.31626
H          2.03523       -0.45947       -0.60805
H          0.00064       -0.62617        0.27459
H          0.11877        1.01249        0.88066
H          0.36202        2.06107       -1.30195
H          0.77095       -0.33778       -2.94949
H         -0.26090        1.59750       -4.47289
H         -2.33055        2.61801       -3.06397
H         -2.40958        1.23149       -0.78236
H         -2.15121       -0.68143       -3.04568
H         -2.21248       -1.50145       -0.82554
