19
	Energy:    2749.4423287
C          1.10830       -0.61514        0.95058
C          1.03013        0.15023       -0.37578
C          2.05937       -0.15595       -1.44571
C          2.14190        1.17000       -0.65154
C          3.46402        1.17402        0.08310
O          4.29576        2.03761       -0.14816
C          1.92296        2.31619       -1.65492
C          1.30454        3.53310       -1.07422
O          0.57520        2.63076       -1.87936
H          0.39164       -1.46122        0.91159
H          2.10787       -1.04269        1.16330
H          0.81340        0.05848        1.78187
H          0.04552        0.56620       -0.67550
H          2.63890       -1.04200       -1.10567
H          1.46472       -0.22685       -2.38236
H          3.70347        0.42237        0.82413
H          2.55619        2.45674       -2.55645
H          0.85881        3.49006       -0.05784
H          1.38266        4.48460       -1.63945
