19
	Energy:    1582.2311982
C          3.05560        0.60452        1.10968
C          2.96432       -0.90146        0.89353
C          2.59956       -1.23140       -0.55542
C          3.50637       -0.90157       -1.74723
C          2.98789       -1.72378       -2.93428
C          2.25204       -2.83286       -2.26410
O          1.80334       -3.80562       -2.84857
C          1.97840       -2.53186       -0.83770
O          1.23398       -1.30988       -0.81279
H          3.32012        0.81119        2.16823
H          3.83786        1.04572        0.45662
H          2.07845        1.08355        0.88645
H          3.94198       -1.36993        1.13645
H          2.19766       -1.31390        1.58594
H          3.63248        0.17643       -1.98020
H          4.49957       -1.31598       -1.46386
H          2.23814       -1.16261       -3.53224
H          3.83394       -2.04782       -3.57761
H          1.44058       -3.21473       -0.14730
