19
	Energy:     182.5458202
C          0.09682       -0.27098       -0.36001
C          1.58829       -0.08292       -0.06961
C          2.36856        0.26325       -1.31375
O          3.54150        0.84957       -0.83384
C          3.24314        1.18303        0.51215
C          3.98138        0.18620        1.42927
C          3.32023       -1.17475        1.32379
C          2.17481       -1.31297        0.62663
O          1.84663        1.03425        0.72959
H         -0.45349       -0.45720        0.58687
H         -0.32571        0.64071       -0.83399
H         -0.05918       -1.13417       -1.04225
H          2.56285       -0.62771       -1.94930
H          1.83504        1.03902       -1.90804
H          3.56037        2.23075        0.69895
H          5.05294        0.13841        1.14043
H          3.90753        0.51239        2.48832
H          3.73332       -2.02040        1.86430
H          1.65838       -2.26851        0.61520
