19
	Energy:    1481.3636103
C          7.00429        1.73587        1.42139
C          6.09527        1.41953        0.23022
C          4.67619        1.05785        0.69109
O          4.54464       -0.26627        1.14531
C          3.96464        0.03617       -0.11476
C          2.49274       -0.01467       -0.07125
C          1.28387        0.02452       -0.08569
C         -0.18997        0.05554       -0.13024
O         -0.69539        1.34519        0.10693
H          7.11135        0.84371        2.07227
H          8.01506        2.03463        1.06754
H          6.59246        2.57113        2.02795
H          6.01237        2.32321       -0.41159
H          6.55154        0.60905       -0.38108
H          4.08919        1.77143        1.29366
H          4.47035       -0.50917       -0.92631
H         -0.53429       -0.26245       -1.13556
H         -0.58372       -0.67587        0.60147
H         -0.33022        1.64980        0.97764
