19
	Energy:    1355.7391798
C         -1.74146       -0.08672        0.66013
C         -0.21211       -0.18421        0.65780
O          0.23650       -1.12902        1.59369
C          0.39647        1.14155        0.91687
C          0.87463        2.22150        1.16591
C          0.26964       -0.62115       -0.72093
O         -0.07967        0.21694       -1.78301
C          0.24764       -2.10052       -1.09412
C          1.59153       -1.38320       -0.86809
H         -2.10756        0.31116        1.62058
H         -2.09872        0.57828       -0.14876
H         -2.16920       -1.08974        0.50226
H         -0.00246       -0.80868        2.49162
H          1.26213        3.18585        1.36951
H          0.41332        1.06442       -1.62638
H         -0.07239       -2.79721       -0.31580
H         -0.02304       -2.31946       -2.12778
H          2.12557       -1.63149        0.05722
H          2.17855       -1.15336       -1.75542
