19
	Energy:    1342.6031289
C         -2.12638        3.95528        1.93666
C         -2.11199        2.47591        1.55555
C         -1.01866        2.01559        0.61665
C         -0.46877        0.62133        0.95539
C          0.20597        0.04443       -0.24976
O          1.39680       -0.22249       -0.22511
C         -2.45062        2.24377        0.07287
C         -3.18372        0.97979       -0.31014
O         -3.52295        0.14627        0.51542
H         -1.56695        4.09038        2.88530
H         -1.66485        4.59958        1.15712
H         -3.17549        4.28291        2.09121
H         -2.59369        1.73266        2.22660
H         -0.28882        2.82353        0.38646
H          0.26279        0.72897        1.78536
H         -1.24917       -0.08525        1.29739
H         -0.36608       -0.14101       -1.15327
H         -2.30444        3.00344       -0.72514
H         -3.45897        0.83363       -1.34881
