19
	Energy:    1363.8545732
C          2.46728       -1.05463        1.08055
C          1.69075       -0.57609       -0.14262
C          2.44900       -0.88800       -1.44326
C          2.20372       -2.29287       -1.95042
C          1.73931       -1.07507       -2.77327
C          2.77915       -0.54870       -3.69469
O          2.62783       -0.47777       -4.90297
O          3.91302       -0.15993       -3.09140
C          3.82895       -0.27612       -1.72549
H          2.61318       -2.15490        1.03666
H          3.45871       -0.55676        1.13157
H          1.89942       -0.80685        2.00192
H          0.68827       -1.05812       -0.14279
H          1.53884        0.52207       -0.07295
H          3.01185       -2.82060       -2.50312
H          1.27608       -2.83292       -1.66573
H          0.78596       -0.51504       -2.66512
H          4.63982       -0.91855       -1.32155
H          3.89787        0.74150       -1.28575
