19
	Energy:    2400.6975841
C         -3.45321        2.48256        0.07097
C         -1.96544        2.76997       -0.12571
C         -1.11404        2.13920       -1.24258
C         -0.32346        1.41559       -0.16978
C          1.15362        1.54746        0.04960
O          1.26434        0.15035        0.26040
C         -0.07440       -0.06067       -0.15441
C         -1.21434        1.98131        0.90313
O         -1.23203        3.38821        0.89836
H         -3.83166        3.00177        0.97735
H         -4.00999        2.86486       -0.80922
H         -3.64832        1.39151        0.16042
H         -1.73253        1.46781       -1.87722
H         -0.50523        2.90127       -1.77454
H          1.70213        1.80889       -0.88318
H          1.42826        2.14568        0.94545
H         -0.06072       -0.50249       -1.17606
H         -0.68250       -0.61373        0.59421
H         -1.33297        1.68140        1.96570
