19
	Energy:    1382.2771312
C          0.44332        2.95573        1.29848
C         -1.05529        2.78501        1.02602
O         -1.79438        3.38505        2.06090
C         -1.57921        1.33678        0.82166
C         -0.96815        0.34549       -0.18762
O          0.16378        0.80137       -0.88040
C         -0.76846        0.14502        1.33144
C         -1.54078       -0.95017        1.94372
C         -2.17568       -1.84545        2.44251
H          1.05085        2.56237        0.46406
H          0.66981        4.03554        1.41816
H          0.73748        2.43954        2.23473
H         -1.30511        3.36366        0.11005
H         -1.62136        2.87883        2.89699
H         -2.67850        1.25633        0.83741
H         -1.71199       -0.27369       -0.72931
H          0.68242       -0.02041       -1.09018
H          0.25858        0.31188        1.68659
H         -2.69596       -2.64615        2.90977
