19
	Energy:    1557.6624289
O          0.14333        0.58873       -0.45017
C         -0.87570        0.85950        0.48174
C         -0.59509        2.17843        1.26063
O         -1.25305        3.28000        0.62126
C         -1.96410        2.77215       -0.49140
C         -2.14328        1.33088       -0.17426
C         -3.03161        0.85560        0.99385
C         -2.03306       -0.20611        0.56789
C         -2.40316        0.03494       -0.91892
H          0.72788       -0.07670       -0.00519
H         -0.93017        2.10679        2.31584
H          0.49970        2.36527        1.28596
H         -2.94343        3.27366       -0.63638
H         -1.32739        2.88592       -1.39560
H         -2.88643        1.26158        2.01709
H         -4.11012        0.67678        0.76827
H         -1.95503       -1.21006        1.03793
H         -1.65737       -0.28787       -1.67958
H         -3.45386       -0.17028       -1.23452
