19
	Energy:     696.9356460
O         -0.43923        1.28198        0.11619
C         -0.01528       -0.05225        0.05460
C          0.13511       -0.61725       -1.34772
C         -0.67817       -1.84889       -0.90714
C         -1.95279       -2.11763       -1.73642
C         -3.08103       -1.82263       -0.76493
O         -4.29863       -1.52872       -1.40056
C         -2.52335       -0.69534        0.02784
C         -1.11296       -1.07444        0.35510
H          0.33277        1.82313       -0.19215
H          0.85940       -0.28700        0.70270
H         -0.44587        0.03226       -2.04058
H          1.17425       -0.79936       -1.69361
H         -0.09579       -2.72248       -0.53975
H         -2.01878       -1.37459       -2.56110
H         -2.00221       -3.12723       -2.19587
H         -3.21922       -2.68207       -0.07110
H         -4.18394       -0.67566       -1.89625
H         -3.11835       -0.21448        0.79287
