19
	Energy:    1381.8321953
O          0.63975        0.65623        0.08620
C         -0.68101        0.68238        0.56907
C         -1.15314        2.05267        1.10280
C         -2.19094        1.32089        1.95583
C         -2.71519        2.07816        3.19091
O         -1.71410        2.43430        4.12109
C         -0.48677        2.78321        3.51583
C         -0.14784        1.96683        2.25353
C         -0.83930        0.59902        2.10264
H          1.00318       -0.22815        0.34975
H         -1.38744        0.10450       -0.07526
H         -1.35213        2.95631        0.48807
H         -3.01487        0.83199        1.37976
H         -3.30141        2.96946        2.88152
H         -3.40091        1.38311        3.71901
H         -0.45033        3.87162        3.29706
H          0.30522        2.55648        4.25987
H          0.92170        2.08318        1.95983
H         -0.64712       -0.30357        2.72081
