19
	Energy:    1829.0253828
O          0.67168        0.13205        1.03495
C         -0.61209        0.42262        0.55417
C         -1.07779        1.86914        0.76025
C         -1.61389        2.27524        2.12944
C         -0.94473        1.46636        3.24686
C         -1.40026        0.02316        2.99128
C         -1.73010       -0.01678        1.49070
O         -2.41311       -1.16716        1.06834
C         -2.42506        1.31834        1.28406
H          1.29035        0.72049        0.53022
H         -0.78238        0.10820       -0.50117
H         -1.24359        2.55980       -0.09815
H         -1.74402        3.37656        2.17259
H          0.15460        1.58000        3.12656
H         -1.22708        1.78594        4.27226
H         -0.67951       -0.73961        3.35441
H         -2.36890       -0.13158        3.51933
H         -3.35003       -1.07721        1.38278
H         -3.04266        1.46793        0.36771
