19
	Energy:    1697.5159600
C         -1.69224       -2.05358        0.97173
C         -0.66241       -2.16450       -0.15531
O         -1.13193       -3.01245       -1.17160
C         -0.30790       -0.79279       -0.73165
C          0.77732       -0.42073       -1.83433
C          0.22042        1.01177       -1.35657
C         -1.22372        0.30537       -1.43052
C          0.20922        0.32506       -0.18426
O          0.59864        0.59913        0.94221
H         -1.91255       -3.06261        1.37984
H         -1.29499       -1.42028        1.79323
H         -2.63631       -1.60420        0.59630
H          0.26460       -2.60964        0.26474
H         -1.95260       -2.60100       -1.55156
H          1.85084       -0.65374       -1.58611
H          0.53804       -0.72030       -2.88342
H          0.54933        2.03386       -1.63705
H         -2.04018        0.75727       -0.80080
H         -1.59972        0.05585       -2.45221
