19
	Energy:     282.1670253
C          1.54789       -0.18300        0.19730
O          0.17280        0.08753        0.02785
C         -0.33946        0.88083        1.08958
C         -0.09002        2.37333        0.83805
O         -1.24097        2.89840        0.21768
C         -2.29473        2.25555        0.89110
C         -1.85317        0.80031        1.02642
C         -2.49681        0.12517        2.17001
C         -3.01887       -0.43084        3.10148
H          1.75936       -0.70688        1.15522
H          1.85832       -0.87384       -0.61383
H          2.16234        0.73462        0.08320
H          0.07490        0.58006        2.08607
H          0.04669        2.90025        1.81213
H          0.82051        2.56183        0.23483
H         -2.43603        2.74330        1.88278
H         -3.24608        2.33139        0.32303
H         -2.15070        0.29905        0.07332
H         -3.47161       -0.92095        3.92321
