19
	Energy:    2163.2896291
O         -0.70349        0.47910        2.84886
C         -1.59027        0.00861        1.87072
C         -2.60827        0.98899        1.33738
C         -1.34174        0.80053        0.53590
O         -0.31147        1.72775        0.74401
C         -0.92102       -0.51279       -0.12989
C         -2.03077       -1.31085       -0.81629
C         -2.27112       -2.07862        0.47732
C         -1.15993       -1.27468        1.15442
H         -1.16254        0.30868        3.71034
H         -3.50446        0.51454        0.88916
H         -2.67615        1.94787        1.89364
H         -0.48897        2.45419        0.09385
H          0.09708       -0.57095       -0.57318
H         -2.87969       -0.67716       -1.15254
H         -1.60689       -1.98441       -1.59327
H         -3.26879       -1.92021        0.94084
H         -1.96880       -3.14231        0.35798
H         -0.30240       -1.84446        1.57442
