19
	Energy:    1856.7985256
C          1.04762        1.29538       -0.33058
C          1.17658       -0.15843        0.07059
C         -0.20965        0.46978       -0.10729
O         -0.88524        0.34653        1.11371
C         -1.65300       -0.71192        0.54809
C         -3.11515       -0.42958        0.35274
C         -3.07394        0.60523       -0.74501
O         -2.04572        0.20504       -1.63089
C         -1.08567       -0.49707       -0.85069
H          0.98931        2.08694        0.44640
H          0.99320        1.56909       -1.40543
H          1.68724       -0.64003       -0.79083
H          1.66935       -0.13542        1.06609
H         -1.39061       -1.66870        1.05385
H         -3.56832       -1.35165       -0.07579
H         -3.67509       -0.13710        1.26576
H         -4.05722        0.67714       -1.25597
H         -2.80987        1.60372       -0.32873
H         -0.67892       -1.41202       -1.33490
