19
	Energy:    1398.5519143
C         -0.47837        2.33841        0.94364
C         -0.84446        1.19998       -0.01110
C         -2.30599        0.75293        0.15842
C         -2.37964       -0.74728       -0.17240
C         -1.54668       -1.31460       -1.30663
O         -2.08090       -2.55582       -1.66748
C         -0.99726       -1.26009        0.14383
C         -0.10614       -0.07080        0.23520
O          1.10601       -0.14673        0.36156
H         -0.65037        2.04202        2.00068
H          0.59250        2.60556        0.81975
H         -1.09374        3.23398        0.71386
H         -0.62894        1.50241       -1.05916
H         -2.56637        0.79407        1.24058
H         -3.02969        1.39295       -0.38832
H         -3.22548       -1.37067        0.19042
H         -1.61408       -0.52622       -2.08762
H         -1.30794       -3.08151       -1.99728
H         -0.61226       -2.28873        0.31156
