19
	Energy:    1439.1377579
C          1.32556       -0.47702        0.21297
O         -0.02230       -0.49119        0.62840
C         -0.38155        0.76664        1.16543
O          0.26127        0.97400        2.42491
C         -0.44568        0.75021        3.64455
C         -1.32321       -0.48311        3.77619
C         -1.95321        0.91082        3.59108
C         -2.60275        0.96627        2.25530
C         -1.88197        0.88150        1.14424
H          2.01350       -0.29490        1.06784
H          1.57475       -1.47920       -0.19181
H          1.48974        0.25499       -0.60819
H         -0.05365        1.59793        0.49934
H         -0.12113        1.35635        4.51619
H         -1.07745       -1.13879        2.91524
H         -1.11563       -0.85378        4.80220
H         -2.59195        1.02706        4.49207
H         -3.68222        1.06112        2.19310
H         -2.39177        0.88399        0.18473
