19
	Energy:    3200.0736501
C          1.26848        0.12289       -0.13218
O         -0.12352        0.18423        0.07662
C         -0.38258        0.75843        1.34310
C         -0.34896       -0.27724        2.47361
O         -0.76311        0.26197        3.70954
C         -1.79317       -0.08966        2.82793
C         -1.86384        0.89248        1.67796
C         -2.76627        0.23814        0.61397
C         -3.00165        1.66933        1.03508
H          1.77254       -0.49902        0.64006
H          1.45259       -0.36620       -1.11060
H          1.71118        1.14200       -0.18766
H          0.18604        1.69053        1.56749
H          0.43819       -1.01937        2.72139
H         -2.19644       -1.12598        2.82251
H         -2.55465        0.33230       -0.47249
H         -3.69908       -0.28365        0.91971
H         -2.48931        2.49916        0.50330
H         -3.68391        1.89147        1.88293
