19
	Energy:      93.9962500
O          0.52821        0.20166       -0.97091
C          0.27369       -0.09796        0.18587
O         -0.49791        0.69728        0.97069
C         -1.12917        1.85928        0.55973
C         -1.75472        2.55547        1.76336
C         -2.33371        3.91398        1.33223
C         -3.16959        3.81439        0.07849
C         -3.14846        2.73423       -0.72190
C         -2.24277        1.55088       -0.47096
H          0.69043       -1.00788        0.60281
H         -0.37611        2.55696        0.12580
H         -2.56441        1.90548        2.16530
H         -1.00968        2.72196        2.57138
H         -2.95375        4.29094        2.17327
H         -1.52599        4.65142        1.13643
H         -3.80733        4.65255       -0.18515
H         -3.81072        2.70411       -1.58173
H         -2.88668        0.71130       -0.13089
H         -1.75871        1.25357       -1.42409
