19
	Energy:    2785.4786287
O          0.48439        0.11545        0.01649
C         -0.65499        0.66673        0.63486
C         -2.01395        0.26077        0.04599
O         -2.57487        1.48454        0.47216
C         -1.35171        1.78178       -0.13954
C         -0.83580        3.21265       -0.21140
C         -1.60635        0.85154       -1.31407
C         -1.92541        0.04827       -2.57698
C         -2.86852        1.14595       -2.12604
H          0.37832       -0.86845        0.08573
H         -0.58721        0.77823        1.74051
H         -2.54742       -0.70043        0.21361
H         -0.73649        3.62434        0.81506
H          0.15896        3.22637       -0.70397
H         -1.54228        3.84228       -0.78960
H         -1.17086        0.36619       -3.32604
H         -1.90715       -1.00370       -2.21826
H         -2.82382        1.99809       -2.83616
H         -3.83417        0.69967       -1.80104
