19
	Energy:    1847.8908926
O          0.45512        1.03737       -3.00925
C          1.53212        1.13792       -2.11684
C          1.05540        0.74336       -0.70291
C          2.07916        0.20795        0.25436
O          1.73780       -0.15993        1.36630
C          1.40894        2.18610       -1.00918
C          0.58358        3.39293       -1.42334
C          1.92109        4.07572       -1.75596
C          2.67890        3.01536       -0.93801
H          0.21007        0.07622       -3.04395
H          2.45698        0.56542       -2.35046
H         -0.00803        0.78918       -0.38345
H          3.12502        0.13910       -0.03011
H         -0.14941        3.33472       -2.25598
H          0.15097        3.82666       -0.49493
H          2.13548        3.88404       -2.83360
H          2.05455        5.14812       -1.50052
H          3.62052        2.63699       -1.39294
H          2.79708        3.34982        0.11620
