19
	Energy:      98.3411462
C         -1.67813        3.42317       -1.08854
C         -0.94451        2.21867       -0.48137
C         -0.70233        1.09785       -1.50699
O         -1.96670        0.64566       -1.96460
C         -1.84128       -0.10117       -3.15602
C         -3.17402       -0.55712       -3.57289
C         -4.26981       -0.92630       -3.91850
C          0.02749       -0.02921       -0.81962
O          1.24377       -0.02328       -0.70073
H         -1.86496        4.19337       -0.30703
H         -1.07253        3.88762       -1.89543
H         -2.66118        3.11913       -1.50960
H          0.02702        2.55878       -0.06162
H         -1.56012        1.81445        0.35483
H         -0.08333        1.51478       -2.33926
H         -1.41293        0.51344       -3.98247
H         -1.21157       -1.00470       -3.00882
H         -5.22088       -1.26406       -4.24800
H         -0.54913       -0.85266       -0.41906
