19
	Energy:    1483.8789236
O          2.90169       -1.11651        2.23839
C          3.16371       -1.23982        0.86193
C          2.58254       -0.06533        0.05058
C          2.94056       -0.21414       -1.44265
C          2.45973        0.97879       -2.27298
C          3.29467        1.44384       -3.40461
O          3.29217        2.10590       -2.14183
C          1.12071       -0.01500        0.24076
C         -0.06413        0.02303        0.46648
H          1.91813       -1.09596        2.36403
H          4.26706       -1.24085        0.74669
H          2.78147       -2.21059        0.47594
H          3.03062        0.87537        0.43141
H          4.03736       -0.33132       -1.54524
H          2.46240       -1.12873       -1.85447
H          1.38578        1.22950       -2.29600
H          4.27816        0.97495       -3.59587
H          2.78615        2.06022       -4.17922
H         -1.09847        0.03206        0.66241
