19
	Energy:     100.3177931
O          0.15234        4.46737       -0.24137
C         -0.25670        3.15427       -0.54194
C         -1.79027        3.05224       -0.62823
O         -2.19859        1.73876       -0.97003
C         -1.82188        0.81452        0.03491
C         -0.29401        0.73633        0.16359
C          0.26101        2.13731        0.49550
C          0.07309       -0.24825        1.19871
C          0.37337       -1.05463        2.04587
H         -0.16580        4.69215        0.67179
H          0.16429        2.90186       -1.53636
H         -2.26025        3.38095        0.32480
H         -2.15583        3.72752       -1.42982
H         -2.28809        1.06714        1.01370
H         -2.21702       -0.18061       -0.26806
H          0.12327        0.40096       -0.80739
H         -0.08713        2.43822        1.50763
H          1.37241        2.13345        0.49988
H          0.64756       -1.75087        2.79724
