19
	Energy:    1353.1495228
O          1.01310        0.19258       -0.35178
C          0.59975        0.21739        0.98650
C         -0.87111        0.51004        1.07021
C         -1.37792        1.54654        1.72447
C         -2.86190        1.58268        1.62453
O         -3.28664        2.77960        1.02399
C         -3.21600        0.37376        0.74765
C         -2.91607       -0.97382        1.38916
C         -1.90956       -0.36215        0.43001
H          1.06292        1.13828       -0.65054
H          0.79392       -0.77813        1.43719
H          1.20321        0.95860        1.55921
H         -0.78629        2.27808        2.26027
H         -3.33106        1.49721        2.62791
H         -2.89662        2.82076        0.11053
H         -4.24508        0.23306        0.35414
H         -2.52181       -0.99637        2.42922
H         -3.30433       -1.89119        0.89823
H         -1.92702       -0.46918       -0.67496
