19
	Energy:    1750.6179048
C         -3.26268        0.09104        0.90273
C         -2.14011       -0.05729       -0.13483
C         -2.11938        0.90233       -1.30604
C         -1.02204        1.04168       -0.25251
C         -1.08978        2.08807        0.86866
C         -0.10452       -0.08886       -0.10239
O          1.11560       -0.11706       -0.10124
C         -1.07728       -1.17878        0.00977
O         -1.05277       -2.02993       -1.10195
H         -2.85378        0.03593        1.93261
H         -3.81732        1.04507        0.77869
H         -3.97832       -0.74676        0.77345
H         -1.75339        0.46027       -2.25697
H         -2.82446        1.76012       -1.29439
H         -1.16169        1.61440        1.86984
H         -0.15571        2.68672        0.84980
H         -1.94439        2.78091        0.71969
H         -1.06636       -1.70575        0.98903
H         -0.19776       -2.53089       -1.04714
