19
	Energy:    1645.6490886
C          2.82717        1.42075       -1.94089
C          2.33906        1.82274       -0.57194
O          1.58270        3.01144       -0.52258
C          0.24803        2.74616       -0.09155
C         -0.27530        1.34308       -0.52051
C          0.19158        0.17979        0.39979
C          1.43068       -0.37348       -0.29995
C          1.62031        0.68336       -1.34938
O          0.33458        1.11165       -1.76405
H          2.46399        1.97326       -2.83348
H          3.62987        0.65790       -2.01911
H          3.16399        1.68052        0.15967
H          0.11153        2.93386        0.99474
H         -0.37965        3.48335       -0.63638
H         -1.38658        1.35744       -0.54188
H          0.37869        0.55594        1.42872
H         -0.55758       -0.64134        0.44347
H          2.28391       -0.61958        0.37025
H          1.14437       -1.28630       -0.86746
