19
	Energy:    1787.4662456
C          0.52923        0.73508        0.07810
C          0.81302       -0.75232        0.33390
C          1.41476       -1.42403       -0.90744
C          2.23572       -2.64844       -0.54723
O          1.84191       -3.31823        0.64232
C          2.14224       -2.43174        1.70124
C          2.12177       -1.04202        1.08509
O          2.59735        0.00075        1.89539
C          2.78795       -1.28457       -0.22374
H          0.26368        1.23275        1.03435
H          1.41280        1.25011       -0.35786
H         -0.32596        0.83570       -0.62269
H         -0.06779       -1.26220        0.78372
H          1.58849       -0.85023       -1.84330
H          2.62841       -3.22495       -1.41127
H          1.38362       -2.50682        2.50871
H          3.15069       -2.67048        2.10719
H          3.58769       -0.05851        1.88674
H          3.88073       -1.47949       -0.28937
