19
	Energy:    1476.1888073
C          1.27643        0.49912       -1.20214
C          1.86600        0.86691        0.16037
O          0.57789        1.17086        0.63597
C          0.46821       -0.06031       -0.03627
C          1.72784       -0.56941        0.65924
C          2.63664       -1.68476        0.13040
C          3.59403       -1.72798        1.27917
C          2.62082       -1.61203        2.44071
O          1.63955       -0.66315        2.07144
H          0.78958        1.34328       -1.74218
H          1.80704       -0.20587       -1.87488
H          2.72426        1.54815        0.34826
H         -0.50525       -0.59259       -0.10596
H          2.05595       -2.63454        0.10618
H          3.14282       -1.53608       -0.84462
H          4.25084       -2.62293        1.31382
H          4.22847       -0.81150        1.24883
H          2.10905       -2.58722        2.60457
H          3.15268       -1.31711        3.36972
