19
	Energy:    1139.9635977
C         -2.92031        1.15606       -2.06508
C         -3.14806        0.14610       -0.94254
C         -4.05315        0.56552        0.23020
C         -3.11584       -0.21099        1.17816
C         -2.05744       -0.06055        0.09696
C         -0.73937       -0.97529       -0.07359
C         -0.13567        0.36353        0.17408
O          1.01193        0.77164        0.24671
O         -1.24241        1.01854        0.29406
H         -2.60673        2.14038       -1.65775
H         -2.13048        0.77952       -2.74810
H         -3.86094        1.29021       -2.63877
H         -3.47366       -0.85150       -1.31893
H         -3.91489        1.65516        0.42968
H         -5.12888        0.29158        0.19967
H         -2.92032        0.19574        2.19313
H         -3.43713       -1.27773        1.20229
H         -0.48849       -1.64884        0.77257
H         -0.48559       -1.29342       -1.10659
