19
	Energy:    1374.0774009
C          1.51013       -0.08442       -0.06957
O          0.12483       -0.27507        0.10207
C         -0.33355        0.49545        1.19837
C         -0.07499        0.06652        2.61001
O         -0.76659        1.05614        3.32885
C         -1.32394        1.84296        2.29052
C         -1.77288        0.94324        1.14466
C         -1.45056        2.03104        0.11791
C         -0.32197        2.00663        1.14960
H          2.08332       -0.46853        0.80159
H          1.83380       -0.67329       -0.95202
H          1.75567        0.97761       -0.28837
H         -0.50965       -0.93754        2.80486
H          1.00864        0.09928        2.85029
H         -1.96121        2.70327        2.59717
H         -2.65264        0.26583        1.19143
H         -1.18655        1.67807       -0.90544
H         -2.10966        2.92998        0.13813
H          0.58752        2.64277        1.20362
