19
	Energy:    2122.6649972
O          0.53904       -0.21441        0.56951
C         -0.63785        0.52220        0.38084
C         -1.87606       -0.37097        0.52161
C         -2.18266       -1.00679        1.85380
C         -2.36557        0.49170        1.73661
C         -1.07850        1.27936        1.61429
C         -1.07896        2.78471        1.62731
C         -0.08470        2.56940        2.75669
O         -0.21626        1.16517        2.71609
H          1.27648        0.44921        0.56053
H         -0.68586        1.06555       -0.58929
H         -2.67575       -0.28742       -0.25140
H         -3.13694       -1.57151        1.89700
H         -1.29627       -1.31521        2.44832
H         -3.28070        0.96504        1.31141
H         -0.61869        3.25136        0.72984
H         -2.03738        3.19076        2.01806
H          0.95163        2.85736        2.47005
H         -0.43841        2.98288        3.72671
