19
	Energy:    1896.1001934
O          0.11228        0.05669        0.43012
C         -1.00051        0.85288        0.07311
C         -1.23895        1.96298        1.07557
C         -2.20009        3.04127        0.50560
C         -3.57045        2.42549        0.06720
C         -3.55290        1.60245       -1.23058
C         -3.58784        0.87176        0.09782
C         -2.26967        0.31564        0.72343
O         -2.02487        1.10132        1.87752
H          0.18075       -0.02930        1.41809
H         -0.92992        1.08880       -1.00501
H         -0.30980        2.37208        1.52927
H         -2.41615        3.75248        1.33059
H         -1.72613        3.61121       -0.32198
H         -4.38751        3.14781       -0.14673
H         -4.54889        1.52142       -1.71738
H         -2.69292        1.93999       -1.84067
H         -4.55107        0.59638        0.57638
H         -2.27070       -0.78693        0.86348
