19
	Energy:     435.6887084
C          1.43124       -0.14391        0.04664
O          0.04223        0.09123       -0.04089
C         -0.43777        0.76168        1.11231
C         -1.95828        0.61820        1.25879
C         -2.12270        0.97614        2.73911
C         -0.65849        1.22657        3.12570
O          0.02375        0.26471        2.35207
C         -0.21068        2.51172        2.50019
C         -0.07505        2.21138        1.17790
H          1.66738       -0.87722        0.84792
H          1.76773       -0.59269       -0.91027
H          2.00320        0.80131        0.17411
H         -2.52984        1.25892        0.55241
H         -2.23663       -0.45050        1.11871
H         -2.77580        1.85295        2.94163
H         -2.49780        0.08247        3.28558
H         -0.47646        1.19938        4.22086
H          0.06148        3.44302        2.97822
H          0.32748        2.85663        0.40852
