19
	Energy:     469.9463765
C          1.53115        0.00023       -0.02427
C          0.06945        0.02463        0.02402
C         -1.13525        0.04442        0.06430
C         -2.60497        0.06897        0.11589
C         -3.26711       -0.00071       -1.24611
O         -3.90824       -1.21958       -0.94681
C         -3.23963       -1.29780        0.28871
C         -4.21322       -1.38608        1.46853
O         -4.87651       -2.62040        1.45975
H          1.93662        0.78294        0.64939
H          1.89548       -0.99495        0.30395
H          1.87028        0.19414       -1.06267
H         -3.05909        0.86633        0.74473
H         -4.00755        0.81426       -1.40208
H         -2.55820       -0.15556       -2.09160
H         -2.50455       -2.13613        0.26325
H         -3.64180       -1.30238        2.41685
H         -4.95077       -0.55050        1.45273
H         -5.60287       -2.54878        0.78677
