19
	Energy:    1344.4573836
O          0.20659       -3.02269        2.19105
C          0.12951       -1.63046        2.08732
C         -1.27081       -1.03563        2.18956
C         -0.63669       -1.28778        0.82015
C         -0.25738       -0.01426        0.08903
C         -0.40741        1.23017        0.47608
C          0.10856        2.12869       -0.57476
O          0.58413        1.31961       -1.63209
C          0.36818       -0.02497       -1.25245
H          0.16447       -3.21204        3.16321
H          1.08414       -1.06130        2.05174
H         -1.91260       -1.83671        2.61620
H         -1.08186       -0.14484        2.82234
H         -1.33357       -1.99199        0.31694
H         -0.83897        1.56773        1.40706
H         -0.71229        2.78167       -0.93922
H          0.93931        2.74024       -0.16385
H         -0.31402       -0.51616       -1.97838
H          1.33875       -0.56298       -1.20578
