19
	Energy:     889.6910601
O          0.18364       -0.48780       -0.06112
C         -0.72524        0.38016        0.56921
C         -2.05950        0.35409       -0.18370
C         -2.89258       -0.63667        0.64051
C         -3.33433       -0.23950        2.05136
C         -2.21135        0.62949        2.59069
C         -1.10285       -0.20341        1.93746
C         -1.97146       -1.41083        1.54316
O         -2.93824       -1.49164        2.55047
H          1.05627       -0.36501        0.39636
H         -0.29462        1.40734        0.58651
H         -2.59492        1.32809       -0.16403
H         -1.89853        0.04047       -1.23784
H         -3.69377       -1.21366        0.12832
H         -4.38387        0.07579        2.23418
H         -2.21409        1.69668        2.27674
H         -2.22436        0.55241        3.70142
H         -0.24067       -0.36489        2.61979
H         -1.51263       -2.32847        1.11439
