19
	Energy:    1523.2305104
O         -0.84252        0.62507        0.52574
C         -2.01511       -0.04051        0.14862
C         -2.31514       -1.45663        0.62126
C         -3.80163       -1.56635        0.28963
C         -4.35401       -0.23035        0.78789
C         -3.30491        0.76841        0.30035
C         -2.72648        0.48791       -1.08461
C         -3.46078       -0.60350       -1.88511
O         -3.98798       -1.68709       -1.11710
H         -0.95955        0.86843        1.48034
H         -1.69795       -2.23806        0.12973
H         -2.16834       -1.50043        1.72341
H         -4.28895       -2.43820        0.77507
H         -5.38063       -0.02277        0.41850
H         -4.35062       -0.21017        1.90008
H         -3.25533        1.84002        0.58799
H         -2.23904        1.35854       -1.57294
H         -4.29444       -0.12098       -2.43648
H         -2.74297       -1.01820       -2.62306
