19
	Energy:     587.7838266
O          1.69488        0.70007        0.06902
C          0.31139        0.55989       -0.10732
C          0.04834        0.11857       -1.55233
C          0.32210        1.24281       -2.56400
C         -1.18571        1.49854       -2.64758
C         -1.43394        0.14427       -1.97616
O         -2.38166        0.23843       -0.93728
C         -1.75546       -0.92426       -2.94771
C         -2.01165       -1.84084       -3.68627
H          1.83191        1.01128        0.99999
H         -0.06877       -0.23605        0.57193
H         -0.20313        1.52055        0.11456
H          0.59647       -0.82854       -1.76022
H          0.96390        2.09484       -2.24286
H          0.66313        0.79554       -3.52322
H         -1.44539        2.30923       -1.92963
H         -1.62966        1.67771       -3.65228
H         -2.64546       -0.68040       -0.66965
H         -2.27770       -2.64015       -4.32560
