19
	Energy:     527.2673840
C         -2.46203       -2.40283        1.45100
C         -1.03799       -2.09072        0.96264
C         -0.16859       -1.56337        2.08378
O         -0.60518       -1.39339        3.21239
C         -1.09707       -1.06449       -0.18924
C         -1.65042       -1.60940       -1.54072
C         -0.29951       -1.32327       -2.25630
C          0.15027       -0.88679       -0.93561
O          1.22788       -0.43296       -0.58483
H         -2.43148       -3.15605        2.26711
H         -2.95820       -1.48244        1.82844
H         -3.07501       -2.82064        0.62500
H         -0.58286       -3.03862        0.59851
H          0.87361       -1.33561        1.88796
H         -1.49608       -0.06785        0.10239
H         -1.83052       -2.70786       -1.51841
H         -2.49329       -1.00367       -1.93857
H          0.26209       -2.22204       -2.58929
H         -0.30298       -0.45188       -2.94523
