19
	Energy:    1383.6809826
C          4.76903        0.10029       -0.35559
C          3.25379        0.17718       -0.22767
C          2.30520        0.88831       -1.18465
C          1.48529        0.24588       -0.05485
C          2.33731       -1.02850       -0.10573
O          2.44462       -1.59069        1.19245
C          2.57193       -0.44807        2.00500
C          2.50944        0.64314        0.98711
O          2.62147        1.98979        1.36494
H          5.19279       -0.49580        0.47910
H          5.03608       -0.38136       -1.31893
H          5.19649        1.12392       -0.32730
H          2.35163        2.00137       -1.18564
H          2.19210        0.42559       -2.19223
H          0.38483        0.25691        0.09964
H          2.22724       -1.73376       -0.96018
H          1.72190       -0.37263        2.71657
H          3.55093       -0.44460        2.53054
H          1.72387        2.25156        1.69541
