19
	Energy:     255.2008964
O          4.06437       -1.80464       -0.90167
C          4.12399       -0.45519       -1.29002
C          5.02417       -0.29769       -2.49409
C          4.23765        0.63202       -3.40938
O          3.14531        1.14489       -2.68561
C          2.79464        0.11790       -1.78802
C          1.92116        0.73163       -0.67663
C          1.54226       -0.22585        0.36662
C          1.26008       -1.01743        1.23046
H          3.45152       -1.87600       -0.13133
H          4.52928        0.19745       -0.48158
H          5.98895        0.14918       -2.16389
H          5.22147       -1.24987       -3.03326
H          4.88305        1.44597       -3.80086
H          3.83243        0.05471       -4.27182
H          2.22192       -0.66179       -2.34483
H          2.46849        1.57125       -0.19513
H          0.99543        1.14559       -1.13048
H          1.02078       -1.72341        1.98053
