19
	Energy:    1556.5899597
C          1.36766        0.65333       -0.73717
C          0.01951        0.15407       -0.29666
C         -0.14633       -1.10663        0.14815
C         -1.51399       -1.65782        0.47362
O         -2.15973       -2.04688       -0.69597
C         -2.70816       -0.90311       -0.06048
C         -2.41289        0.36008       -0.90534
O         -2.32385        0.08325       -2.28320
C         -1.17022        1.07732       -0.35170
H          1.66169        1.52249       -0.11246
H          2.15123       -0.12881       -0.64308
H          1.31494        0.97110       -1.79947
H          0.69951       -1.78509        0.20423
H         -1.71197       -2.29507        1.35986
H         -3.76557       -1.19933        0.10094
H         -3.25973        1.06562       -0.76524
H         -1.45888       -0.37033       -2.45640
H         -0.94492        2.01599       -0.90260
H         -1.40695        1.35709        0.69908
