19
	Energy:    2843.9037573
C          1.39211        0.20392       -0.18401
O          0.01876        0.08901        0.09418
C         -0.21888        0.72217        1.32967
C         -0.67753        2.16687        1.29898
C         -1.71851        1.07992        1.43236
C         -1.81302        0.25574        2.71504
C         -0.81575        0.46705        3.83708
O         -0.91617       -0.46392        4.87466
C         -0.34792       -0.18184        2.55199
H          2.00433       -0.32185        0.58308
H          1.59378       -0.29008       -1.15651
H          1.69691        1.26951       -0.28929
H         -0.51069        2.75209        2.22485
H         -0.66829        2.64980        0.29938
H         -2.20881        0.64266        0.53345
H         -2.45622       -0.65383        2.71599
H         -0.38470        1.46460        4.05895
H         -1.75635       -0.23878        5.35089
H         -0.41674       -1.27749        2.36155
