19
	Energy:    1203.3173870
O          0.49124        0.88880       -0.01181
C         -0.69850        0.85317        0.73438
C         -1.33754        2.22965        0.77993
C         -2.34210        2.30485        1.95952
C         -1.49280        3.42024        2.56433
C         -0.37043        2.67207        1.87915
C         -0.48276        1.17285        2.20995
O          0.53653        0.48972        2.88347
C         -1.88492        1.09848        2.77780
H          1.01825        0.09891        0.27525
H         -1.34096       -0.01055        0.44745
H         -1.51129        2.91900       -0.07658
H         -3.44022        2.44457        1.87328
H         -1.67749        4.40094        2.06726
H         -1.45859        3.51636        3.67254
H          0.62480        3.06645        1.57543
H          0.74803        1.03859        3.68182
H         -2.38130        0.13376        2.52688
H         -1.97320        1.28129        3.87304
