19
	Energy:    1639.6378895
C          1.16416        1.19397        0.34350
C          1.11599       -0.31469        0.10543
C          1.85505       -0.73052       -1.17980
O          3.19971       -0.32842       -1.20076
C          1.65036       -2.21989       -1.60421
C          2.20735       -2.63591       -2.95371
C          0.99732       -1.73937       -2.96286
C          1.19867       -0.39490       -2.43322
O          0.94663        0.68967       -2.93323
H          0.62946        1.43708        1.28573
H          2.21578        1.53863        0.43649
H          0.67321        1.73883       -0.48929
H          1.59055       -0.82495        0.97108
H          0.05277       -0.63754        0.05316
H          3.68109       -0.92779       -0.57330
H          0.79948       -2.76799       -1.13606
H          3.16550       -2.14056       -3.22078
H          2.00478       -3.69278       -3.22444
H         -0.03851       -2.14464       -3.01438
