19
	Energy:    1962.6744527
C          0.79924        1.00313       -0.01747
C          0.83299       -0.52514       -0.07059
C          1.60518       -1.17777        1.07460
C          2.48799       -1.86386        0.04215
C          4.01628       -1.92557        0.09974
O          1.86387       -2.58399       -0.99149
C          1.78505       -1.17476       -1.07809
C          2.69540       -0.50480       -2.07906
O          2.68678        0.70501       -2.23282
H          0.17501        1.32883        0.84082
H          1.81966        1.42345        0.10928
H          0.35191        1.40063       -0.95241
H         -0.17826       -0.97511       -0.18585
H          2.21954       -0.46126        1.66355
H          1.00432       -1.89726        1.67106
H          4.32068       -2.52984        0.97893
H          4.43226       -2.39996       -0.81422
H          4.43399       -0.90240        0.20724
H          3.36103       -1.10873       -2.68731
