19
	Energy:    1497.9544293
C         -0.92485       -2.95534        2.44874
C         -0.70086       -1.45122        2.26756
O         -1.79687       -0.80874        1.64455
C         -0.60937       -0.91255        0.88516
C          0.12309        0.42434        0.71260
C         -0.43976        1.20107       -0.40231
C         -0.90224        1.83809       -1.32124
C         -1.49311        2.58472       -2.44976
O         -2.45846        3.49849       -1.99799
H         -1.58676       -3.14134        3.32297
H         -1.36304       -3.44265        1.55213
H          0.05659       -3.42483        2.67135
H         -0.31398       -0.85349        3.11599
H         -0.71698       -1.61105        0.03063
H          0.08704        1.04174        1.63067
H          1.18845        0.19645        0.48050
H         -0.69768        3.15290       -2.97589
H         -1.93133        1.87380       -3.18364
H         -3.09505        3.00450       -1.41727
