19
	Energy:    1521.7644192
C          5.01690       -0.35860        1.73221
C          5.30943       -0.85826        0.31420
O          5.77217        0.18594       -0.50719
C          4.05110       -1.51046       -0.28129
O          4.32415       -2.44427       -1.30000
C          3.86401       -2.96597       -0.06339
C          2.48108       -3.60019       -0.19868
C          2.90655       -0.64339       -0.61108
C          2.00221        0.09452       -0.91164
H          4.71888       -1.21526        2.37521
H          5.92018        0.11595        2.16707
H          4.18839        0.38198        1.72533
H          6.12775       -1.60817        0.38771
H          5.06812        0.88519       -0.54610
H          4.67424       -3.52893        0.44728
H          2.03877       -3.71168        0.81319
H          1.79065       -3.00720       -0.83271
H          2.58957       -4.60898       -0.64852
H          1.23069        0.77492       -1.15909
