19
	Energy:    1588.1850837
C         -0.32554       -0.09582       -0.18549
C          1.09306       -0.16615       -0.57281
O          1.75740        0.74096       -1.43976
C          2.13607        1.83416       -0.62432
C          0.94104        2.08282        0.23872
C          0.69231        0.66408        0.70012
C          1.82631        0.24718        1.66830
C          3.21968        0.41105        0.98568
O          3.30646        1.58416        0.17612
H         -0.99255        0.56288       -0.78045
H         -0.72268       -0.95935        0.38829
H          1.48608       -1.20360       -0.47591
H          2.32881        2.73254       -1.24788
H          1.14342        2.80918        1.05594
H          0.09653        2.47103       -0.37363
H          1.78238        0.96276        2.51827
H          1.69396       -0.77280        2.08914
H          4.00495        0.42802        1.77015
H          3.46268       -0.46284        0.34464
