19
	Energy:    3082.8040833
C          1.37629        0.15682       -0.02140
O         -0.00704        0.03071        0.19563
C         -0.32292        0.76591        1.35473
C         -0.78862        2.19590        1.19272
C         -1.83756        1.11707        1.31172
C         -1.98922        0.38378        2.63596
C         -2.98488       -0.74993        2.87466
O         -1.11884        0.71899        3.69079
C         -0.56889       -0.02707        2.63019
H          1.95929       -0.26915        0.82627
H          1.64273       -0.42753       -0.92581
H          1.65970        1.21488       -0.22048
H         -0.68632        2.82304        2.10335
H         -0.69112        2.61943        0.17124
H         -2.24292        0.60150        0.41158
H         -2.83720       -1.19971        3.87970
H         -4.01599       -0.34469        2.81520
H         -2.86577       -1.53686        2.09975
H         -0.43048       -1.12321        2.75720
