19
	Energy:    1603.5046939
O          1.08113        0.42197       -0.87218
C         -0.05527        0.06233       -0.13180
C         -1.20267       -0.31454       -1.08420
C         -2.41642       -0.71042       -0.31151
C         -3.52559        0.04648       -0.63341
C         -3.24355        1.06702       -1.67736
C         -1.76306        0.83553       -1.93967
C         -1.01954        1.48639       -3.05256
O         -1.04540        2.03969       -1.76435
H          1.51487        1.17562       -0.39420
H          0.20228       -0.81129        0.50590
H         -0.38730        0.89509        0.53372
H         -0.89695       -1.16591       -1.72992
H         -2.43937       -1.51311        0.41386
H         -4.49722       -0.10330       -0.18218
H         -3.84867        0.85611       -2.58356
H         -3.45516        2.08706       -1.28835
H          0.00519        1.12221       -3.27249
H         -1.59360        2.14188       -3.73962
