19
	Energy:     127.9434274
C          1.10519       -2.07816       -0.21129
C         -0.06624       -1.12072       -0.17557
C          0.00281        0.21019        0.13172
C          1.28001        0.95846        0.45005
C         -1.26134        1.05535        0.20391
C         -2.52080        0.22948        0.20202
O         -3.60054        0.76374        0.39738
O         -2.45289       -1.11297        0.06465
C         -1.39822       -1.70158       -0.59469
H          0.90224       -2.92138        0.48169
H          1.21055       -2.48389       -1.23940
H          2.08041       -1.65862        0.07931
H          1.21311        1.37683        1.47631
H          2.20952        0.37162        0.39766
H          1.39226        1.79918       -0.26630
H         -1.25201        1.58222        1.18265
H         -1.27101        1.81438       -0.60684
H         -1.43761       -2.80674       -0.49041
H         -1.51374       -1.47313       -1.67686
