19
	Energy:    1779.7790926
C         -0.61046       -3.75295        1.11610
C         -1.37853       -3.71778       -0.17924
O         -1.54157       -4.76566       -0.78497
C         -1.92434       -2.44687       -0.80069
C         -1.75218       -1.09945       -0.12282
C         -3.05974       -1.88416        0.06121
C         -4.21447       -0.94786       -0.13779
C         -4.33386       -1.14895        1.37459
O         -3.24109       -2.05015        1.43505
H         -1.22642       -3.38196        1.95791
H         -0.29800       -4.79229        1.35439
H          0.30408       -3.13092        1.02651
H         -2.39590       -2.53344       -1.80342
H         -0.95718       -1.17650        0.64541
H         -1.64232       -0.37831       -0.96105
H         -3.97189        0.09825       -0.43062
H         -5.01773       -1.46603       -0.70319
H         -4.09216       -0.22349        1.94365
H         -5.28588       -1.64536        1.66578
