19
	Energy:    1321.6899924
C          1.46744       -0.03692       -0.04890
O          0.07316       -0.15898        0.09485
C         -0.36826        0.65935        1.16513
C         -1.85157        0.41752        1.52235
C         -1.60356        0.99306        2.92682
C         -0.49624        0.00914        2.55672
C         -1.53061       -0.99505        2.05653
C          0.61269       -0.33257        3.50464
O          1.77549       -0.10170        3.22016
H          2.00221       -0.52670        0.78870
H          1.76678       -0.56935       -0.97485
H          1.78090        1.02312       -0.18061
H         -0.06727        1.73379        1.08184
H         -2.71524        0.67528        0.87266
H         -1.32082        2.07074        2.99059
H         -2.31245        0.68086        3.73100
H         -1.18611       -1.76067        1.32470
H         -2.23571       -1.41447        2.81366
H          0.37447       -0.77443        4.46620
