19
	Energy:     813.8474161
O          0.54535        0.65460        0.54260
C         -0.59620       -0.04725        0.96240
C         -1.74275        0.05052       -0.03681
C         -2.81982       -0.73389        0.72211
C         -2.77272        0.49684        1.61350
C         -2.47550        1.34251        0.39001
O         -1.66771        2.45177        0.74412
C         -1.20545        2.13285        2.03639
C         -1.35210        0.61877        2.13330
H          1.22765        0.51415        1.24940
H         -0.34675       -1.12506        1.11524
H         -1.49301       -0.21320       -1.08637
H         -3.77844       -0.78718        0.15285
H         -2.56510       -1.72160        1.16962
H         -3.58330        0.80452        2.31019
H         -3.38502        1.59352       -0.20404
H         -0.14774        2.44493        2.16777
H         -1.82889        2.64843        2.80191
H         -1.08986        0.18962        3.12368
