19
	Energy:     642.2482733
O          0.80356        0.03058       -0.99008
C         -0.07555       -0.00083       -0.14460
C         -0.71465       -1.34359        0.21538
C         -1.62786       -1.09211        1.40506
C         -2.88077       -1.86005        1.81755
C         -3.50079       -0.46998        2.13113
C         -2.51038        0.08873        1.11054
C         -1.64802        1.34246        1.21776
O         -0.50364        1.18184        0.42363
H         -1.28187       -1.70121       -0.67092
H          0.04051       -2.10663        0.49958
H         -1.02442       -0.88548        2.32701
H         -3.37341       -2.28241        0.90923
H         -2.80459       -2.60287        2.63942
H         -4.58737       -0.32631        1.95328
H         -3.19410       -0.15647        3.15775
H         -2.94805       -0.01815        0.08516
H         -2.23955        2.22016        0.88409
H         -1.31969        1.51393        2.26542
