19
	Energy:    1369.7243479
C          0.49938       -0.82696        0.20719
C          0.87715        0.64238        0.38645
O          1.74924        1.00105       -0.66603
C          2.13578        2.34851       -0.50884
C          3.48550        2.59209        0.18468
O          4.18836        1.46139        0.64220
C          3.38978        2.68402       -1.33881
C          3.39672        4.00006       -1.97058
C          3.48842        5.10212       -2.47024
H         -0.22049       -1.15338        0.98607
H          0.03436       -0.97860       -0.78977
H          1.40305       -1.46942        0.27065
H         -0.05295        1.25340        0.34886
H          1.34742        0.77288        1.39073
H          1.36162        3.13522       -0.42801
H          3.62926        3.54043        0.73625
H          3.72476        0.63291        0.36741
H          3.80137        1.83751       -1.93380
H          3.56062        6.08503       -2.88541
