19
	Energy:      70.9770647
C         -2.76428        4.60489        2.55095
C         -2.13390        3.99867        1.28846
O         -1.47567        2.81429        1.68764
C         -1.02240        2.05741        0.58373
C         -0.37900        0.78242        1.13914
C          0.36036        0.03090        0.07443
O          0.12114       -1.14439       -0.15442
C         -1.20713        4.96990        0.67058
C         -0.45139        5.76503        0.16884
H         -3.46924        3.86818        2.99665
H         -1.98107        4.83108        3.30539
H         -3.32486        5.53487        2.32119
H         -2.95613        3.78573        0.57266
H         -1.85272        1.78668       -0.10786
H         -0.24406        2.62550        0.02405
H          0.36358        1.07493        1.91028
H         -1.14950        0.14032        1.62454
H          1.14448        0.54006       -0.47418
H          0.20682        6.46304       -0.28016
