19
	Energy:    1538.5363511
C          1.50182       -0.03683        0.13268
O          0.09975       -0.01085        0.06326
C         -0.43055        0.67190        1.17706
C         -1.95028        0.57967        1.07257
C         -2.57634       -0.81385        1.02605
O         -2.63011        1.50688        1.86940
C         -2.75873        1.65652        0.45214
C         -2.12496        2.90458       -0.00280
C         -1.58787        3.90419       -0.40637
H          1.86059       -0.57322        1.03889
H          1.86736       -0.60415       -0.74821
H          1.92113        0.98936        0.06516
H         -0.13847        0.17351        2.13079
H         -0.09990        1.73383        1.19624
H         -2.30006       -1.38510        1.93423
H         -3.68277       -0.77724        0.93675
H         -2.17798       -1.34989        0.13720
H         -3.80782        1.46747        0.15934
H         -1.18205        4.79933       -0.81155
