19
	Energy:    1498.0370722
C         -0.96910       -0.92093        1.10592
C         -1.93519       -1.81516        0.32752
C         -2.01045       -3.23220        0.75108
O         -1.28090       -2.82103       -0.39260
C         -0.42280        0.16151        0.21592
C         -0.58901        1.44277        0.40341
C          0.10029        2.17969       -0.67404
O          0.70099        1.22393       -1.52768
C          0.39319       -0.05256       -1.00197
H         -1.52440       -0.47314        1.95821
H         -0.11719       -1.50476        1.51833
H         -2.81612       -1.40571       -0.21053
H         -1.27636       -3.63007        1.48304
H         -2.86744       -3.84014        0.39424
H         -1.14302        1.88985        1.21902
H         -0.63899        2.78265       -1.24228
H          0.88084        2.83497       -0.23323
H         -0.18692       -0.63461       -1.74864
H          1.32959       -0.58618       -0.73416
