19
	Energy:     200.4403200
C          0.82530        1.65640       -1.23499
C          1.87867        1.24108       -0.22226
O          1.37420        0.11385        0.47384
C         -0.02448        0.09511        0.24058
C         -0.39709        1.42887       -0.40295
O         -0.73466       -0.07902        1.45627
C         -1.48646       -1.27571        1.35277
C         -1.21827       -1.86166        0.02665
C         -0.35706       -1.06061       -0.63398
H          0.94571        2.68632       -1.63286
H          0.83037        0.93986       -2.08647
H          2.84358        1.02190       -0.72603
H          2.03136        2.05684        0.52015
H         -1.36873        1.44719       -0.94233
H         -0.41818        2.21750        0.38561
H         -1.16852       -1.98884        2.14205
H         -2.56961       -1.05021        1.44522
H         -1.63545       -2.78061       -0.36319
H          0.01542       -1.25080       -1.63200
