19
	Energy:     665.6247308
O         -1.04615        1.77944        1.22441
C         -1.07051        1.05233        0.02348
C         -2.15931       -0.06995        0.04005
C         -2.94404       -0.23978       -1.27094
C         -1.91538       -0.78783       -2.25627
C         -1.20298       -1.83410       -1.40416
C         -1.06238       -1.17237       -0.02534
C         -0.09872       -0.06005        0.01755
O          0.88780       -0.08725        0.74059
H         -0.16288        2.22918        1.26501
H         -1.04882        1.68437       -0.89141
H         -2.77108       -0.03405        0.96743
H         -3.70576       -1.03302       -1.10153
H         -3.46858        0.67983       -1.60856
H         -2.35951       -1.19807       -3.18862
H         -1.20030        0.01671       -2.53425
H         -1.90345       -2.69051       -1.28057
H         -0.25377       -2.21809       -1.83292
H         -0.93404       -1.85896        0.83989
