19
	Energy:    3241.7908254
C          2.00349       -2.26479        2.03360
C          0.63763       -2.56414        1.40868
O         -0.07765       -3.65578        1.91776
C         -0.41442       -2.40230        2.46902
C         -1.34019       -1.58930        1.55829
C         -0.23290       -1.67878        0.52760
C         -0.14065       -1.12323       -0.87674
C          0.35332       -0.27052        0.28014
O          1.73070       -0.13629        0.08765
H          2.31810       -3.10711        2.68614
H          2.76331       -2.16295        1.23226
H          1.97988       -1.33525        2.64250
H         -0.51671       -2.58610        3.55892
H         -2.24707       -2.17164        1.28924
H         -1.54008       -0.57421        1.96690
H          0.54782       -1.82545       -1.39406
H         -1.19793       -1.04138       -1.20731
H         -0.24195        0.66063        0.15931
H          2.06312        0.30193        0.91167
