19
	Energy:    1938.4508909
C         -0.92862        1.97423        1.30540
C         -0.89325        1.09338        0.05770
C         -2.04555        0.05039       -0.04682
C         -1.03229       -1.13320        0.03066
C         -0.02803       -0.07769        0.18575
O          1.18265       -0.15535        0.32227
C         -2.79434        0.12148       -1.38040
C         -4.12640        0.76637       -1.34836
O         -3.96801       -0.64085       -1.36058
H         -1.11785        1.37226        2.22049
H          0.04112        2.50301        1.41803
H         -1.73662        2.72793        1.19836
H         -0.64795        1.63973       -0.87947
H         -2.69576        0.04898        0.85953
H         -1.09959       -1.75116        0.95148
H         -0.83530       -1.67738       -0.91840
H         -2.27485        0.05791       -2.36006
H         -4.57679        1.04367       -0.37173
H         -4.58606        1.06102       -2.31408
