19
	Energy:    1587.3926740
C          1.56082        0.67267        0.13964
O          0.19736        1.02814        0.15162
C         -0.51566        0.11654        0.96237
C         -1.98693        0.52238        1.06062
O         -2.34036        1.85496        0.84054
C         -2.64565        0.93055       -0.20185
C         -4.10792        0.48329       -0.13927
C         -4.19936       -0.26649        1.14487
C         -3.00163       -0.24956        1.81752
H          1.71206       -0.35704       -0.25478
H          2.09460        1.36161       -0.54665
H          2.01604        0.79504        1.14732
H         -0.47532       -0.90941        0.53096
H         -0.11144        0.11434        2.00009
H         -2.18911        1.36862       -1.11387
H         -4.80202        1.35011       -0.15671
H         -4.33029       -0.20339       -0.98242
H         -5.09172       -0.75478        1.51314
H         -2.84006       -0.71253        2.78166
