19
	Energy:     900.6338930
C          2.28357        1.81009       -1.16816
C          1.62493        0.59313       -0.52735
C          2.03935       -0.69331       -1.25077
C          1.40605       -1.09086       -2.56376
O          1.00957       -2.35150       -2.06470
C          1.43611       -2.01415       -0.75774
C          2.83258       -2.59256       -0.38042
C          3.32554       -1.32258       -0.91372
O          4.46096       -0.87726       -0.96223
H          1.96608        2.73043       -0.63461
H          3.38959        1.72874       -1.10967
H          1.98073        1.89403       -2.23381
H          1.91922        0.53584        0.54341
H          0.52088        0.71139       -0.57903
H          0.50385       -0.48600       -2.80565
H          2.14495       -1.16739       -3.39074
H          0.61144       -1.97219       -0.01131
H          3.04094       -2.62084        0.71005
H          3.15525       -3.48139       -0.96329
