19
	Energy:    2756.6249694
C          2.50523       -0.67548       -0.91178
C          2.17548       -2.01870       -1.56398
C          3.26484       -2.67972       -2.31865
O          2.22675       -1.96041       -2.96156
C          1.26603        0.23888       -0.94395
C          0.21675        0.02225        0.14322
C         -0.29345        1.44622       -0.05590
C          1.22481        1.37182        0.07701
O          1.10078        0.46367        1.14245
H          2.85424       -0.87382        0.12401
H          3.33059       -0.15925       -1.44948
H          1.34610       -2.66130       -1.20029
H          4.21314       -2.13470       -2.50987
H          3.14088       -3.75020       -2.58332
H          0.91496        0.45734       -1.98258
H         -0.41806       -0.88054        0.27766
H         -0.72899        1.72271       -1.04596
H         -0.82114        1.88322        0.82226
H          1.91391        2.24296        0.12500
