19
	Energy:    1978.2002387
C         -2.27748       -1.62758        0.04256
C         -2.31233       -0.28493        0.76450
O         -3.48400        0.28687        1.27131
C         -2.46861        1.20644        1.58781
C         -1.40332        0.15194        1.89656
C         -0.34144        0.79952        0.99891
O          0.48956       -0.11251        0.33585
C         -1.67805        0.99892        0.31192
C         -2.01237        1.69397       -1.00040
H         -2.65840       -2.41954        0.71982
H         -2.92266       -1.57700       -0.85872
H         -1.24479       -1.88434       -0.26753
H         -2.58362        2.17227        2.12770
H         -1.37179       -0.37758        2.87299
H          0.16162        1.71881        1.37306
H          0.99775       -0.57949        1.04811
H         -1.49275        1.17743       -1.83366
H         -3.10727        1.66915       -1.18289
H         -1.67365        2.74961       -0.95612
