19
	Energy:    1370.7726016
O          5.80308       -1.69831        2.18106
C          5.39653       -0.51054        2.80744
C          4.55096        0.34536        1.84799
C          3.33492        1.07198        2.45162
C          3.13804       -0.16279        1.57177
O          2.81349       -1.34743        2.25318
C          2.60755        0.00293        0.14164
C          1.14284       -0.09485        0.15294
C         -0.05618       -0.22089        0.18227
H          5.00037       -2.27494        2.09086
H          4.87490       -0.73482        3.76537
H          6.31069        0.06248        3.06837
H          5.02714        0.81424        0.96007
H          3.14580        0.88348        3.52987
H          3.11145        2.03620        1.94580
H          1.82592       -1.39252        2.29964
H          2.90807        0.97765       -0.29820
H          3.01581       -0.81541       -0.48862
H         -1.10744       -0.33441        0.23326
