19
	Energy:    1513.5234199
C          3.43037        2.81700        0.33475
C          2.90059        1.92956       -0.79237
O          3.84757        1.90287       -1.82673
C          2.62327        0.49918       -0.28409
C          3.76539       -0.31063        0.33744
O          1.85639       -0.25904       -1.17586
C          1.19993        0.18235        0.00918
C          0.85991       -0.97008        0.85191
C          0.58805       -1.90640        1.56387
H          4.40789        2.43913        0.70363
H          3.58104        3.84972       -0.04458
H          2.71239        2.85040        1.18201
H          1.96261        2.39991       -1.16988
H          3.45628        1.36177       -2.56152
H          4.00857        0.10631        1.33626
H          3.50637       -1.38404        0.44718
H          4.66343       -0.23355       -0.31139
H          0.39332        0.88765       -0.27451
H          0.29565       -2.70254        2.19528
