19
	Energy:    1352.6360063
C          1.80273        1.41392        0.82277
C          1.55059       -0.06167        0.52889
C          2.42833       -1.05379        1.30010
C          2.63383       -1.77788       -0.01595
O          3.76917       -2.45950       -0.46628
C          2.93361       -3.29232       -1.24800
C          1.65309       -2.57462       -0.80665
O          1.26939       -1.43213       -1.55287
C          2.12545       -0.59619       -0.80358
H          1.47863        1.64843        1.85826
H          2.88083        1.65972        0.71568
H          1.22100        2.03812        0.11274
H          0.47659       -0.34919        0.61391
H          3.40415       -0.59037        1.56927
H          1.96064       -1.62266        2.13089
H          3.13508       -3.17579       -2.33577
H          2.97112       -4.33927       -0.87412
H          0.91588       -3.05837       -0.12888
H          2.99035       -0.09440       -1.29367
