19
	Energy:    1351.1530967
C          1.10838        1.49614       -0.34486
C         -0.29686        1.52033        0.27902
C         -0.22137        0.00085        0.25836
C          1.29884        0.08064        0.22539
O         -0.84664       -0.80040        1.21974
C         -1.35491       -1.63464        0.18678
C         -2.72361       -1.25347       -0.32263
O         -2.17953       -0.30361       -1.20930
C         -0.86137       -0.71753       -0.90443
H          1.00018        1.41799       -1.45310
H          1.83336        2.28931       -0.06447
H         -0.20055        1.86338        1.33526
H         -1.11833        2.04100       -0.25720
H          1.67113        0.17608        1.27190
H          1.87872       -0.66477       -0.35962
H         -0.96854       -2.67746        0.16074
H         -3.19523       -2.07474       -0.90645
H         -3.36633       -0.79950        0.46242
H         -0.29564       -1.22253       -1.71855
