19
	Energy:    2732.6111171
O          0.92482       -2.70231       -2.35025
C          0.33277       -1.93184       -3.35537
C          0.58016       -2.38140       -4.81187
C          0.24563       -0.94163       -5.24889
C          1.23120       -0.89778       -4.06480
C          2.07050       -1.97920       -4.78079
C          3.10113       -2.84337       -4.01152
C          4.51795       -2.45045       -4.20654
O          3.93629       -3.54018       -4.89502
H          1.20062       -2.05839       -1.64794
H         -0.70874       -1.63231       -3.07916
H          0.16294       -3.28886       -5.29773
H          0.62377       -0.60607       -6.24508
H         -0.79495       -0.57664       -5.06633
H          1.62440        0.04035       -3.61878
H          2.50621       -1.66022       -5.76327
H          2.91654       -3.44818       -3.10554
H          4.77672       -1.67682       -4.95999
H          5.27376       -2.86083       -3.50509
