19
	Energy:      88.4881323
C          1.11796       -0.55268        0.22751
O         -0.11402       -0.47642        0.90312
C         -0.46298        0.87323        1.12503
C         -1.81401        0.88823        1.84471
C         -2.32863        2.26814        2.18646
O         -1.64700        3.25808        1.96227
C         -3.71248        2.44776        2.75718
C         -4.07894        1.38372        3.70301
C         -4.41848        0.49673        4.44665
H          1.94312       -0.11975        0.83464
H          1.35507       -1.62649        0.07770
H          1.05798       -0.08931       -0.78171
H          0.29694        1.37859        1.76524
H         -0.57831        1.41621        0.15769
H         -2.55888        0.38080        1.19692
H         -1.71580        0.31393        2.79248
H         -3.79996        3.43885        3.25393
H         -4.44030        2.41349        1.92001
H         -4.73430       -0.28829        5.08358
