19
	Energy:     110.7885318
C         -0.07759        5.73145       -0.14044
C         -0.36029        4.32500       -0.58334
O         -0.93287        4.13926       -1.64706
C          0.05318        3.13648        0.25237
C         -1.17792        2.30124        0.64912
C         -0.77064        1.21299        1.60170
C          0.41244        1.25679        2.22914
C          1.33936        2.44462        2.06847
O          0.73184        3.55414        1.41855
H          1.01715        5.87481       -0.02505
H         -0.45506        6.46248       -0.88709
H         -0.57848        5.92485        0.83117
H          0.74251        2.52344       -0.37695
H         -1.96620        2.91414        1.13723
H         -1.59456        1.84756       -0.27605
H         -1.44570        0.38206        1.78161
H          0.70653        0.43922        2.88004
H          1.59851        2.78497        3.09247
H          2.28285        2.14690        1.56237
