19
	Energy:    1783.4951550
C         -0.85240        0.90753        2.06531
C          0.62896        0.60000        1.78639
O          1.61151        1.21915        2.57420
C          2.21579       -0.03714        2.80646
C          3.24720       -0.30419        1.71067
O          2.53095       -0.25688        0.48357
C          1.16421       -0.44568        0.82575
C          0.29682       -1.25623       -0.13167
C          1.07605       -0.80761        2.26547
H         -1.07663        0.80846        3.14878
H         -1.05743        1.95653        1.76842
H         -1.53186        0.24801        1.49129
H          2.51824       -0.22230        3.85928
H          4.04900        0.46343        1.73949
H          3.68788       -1.31861        1.83401
H         -0.71001       -1.45977        0.28536
H          0.18928       -0.70227       -1.08697
H          0.78857       -2.23041       -0.33488
H          0.23862       -1.07981        2.94336
