19
	Energy:    1484.8042135
C          1.32429       -2.52938       -5.07660
C          1.80557       -2.76706       -3.64716
C          1.06539       -1.86417       -2.64346
C          1.41907       -0.41209       -2.75067
C          2.56571       -0.19422       -1.78970
O          2.88215       -1.46086       -1.28186
C          1.57639       -1.96157       -1.22078
O          0.83932       -0.98534       -0.53040
C          1.13624        0.10478       -1.36095
H          1.86217       -3.21166       -5.76803
H          0.23461       -2.73034       -5.15478
H          1.52563       -1.48243       -5.38705
H          1.61229       -3.82879       -3.38147
H          2.90264       -2.59093       -3.60382
H         -0.03293       -2.04585       -2.68476
H          1.11700        0.31755       -3.53106
H          3.32141        0.34665       -2.39718
H          1.50607       -2.96639       -0.75303
H          1.23665        1.11137       -0.90447
