19
	Energy:    1682.2873044
O         -0.45271       -1.39355        2.25623
C          0.04021       -0.38460        1.41759
C         -0.51352        0.97554        1.84158
C         -0.00240        2.08100        0.89542
C         -0.96864        2.89516        0.07198
C         -0.44244        3.53137        1.34973
C          1.05442        3.96540        1.38337
C          1.35493        2.58906        1.03194
O          2.42753        2.04454        0.82639
H          0.08598       -1.35978        3.08952
H          1.15399       -0.38627        1.42704
H         -0.28067       -0.60745        0.37742
H         -1.62403        0.92655        1.81061
H         -0.20018        1.19043        2.88741
H         -0.53912        3.34949       -0.84644
H         -2.03900        2.60756        0.13182
H         -0.92712        3.36418        2.33800
H          1.35385        4.64602        0.55802
H          1.41847        4.26453        2.38898
