19
	Energy:    1445.3067499
C         -0.32925        0.13944        0.23739
C          1.14924       -0.26661        0.08163
C          1.73539       -1.00947        1.26154
O          2.82217       -1.56401        1.19374
C          1.89175       -0.32079       -1.26760
C          1.14669        0.23004       -2.46831
O          0.77912        1.56415       -2.21247
C          1.62216        2.02305       -1.18231
C          2.10637        0.84945       -0.34110
H         -0.45072        0.75025        1.15683
H         -0.75085        0.71084       -0.60839
H         -0.94142       -0.78015        0.34470
H          1.17750       -1.06117        2.19100
H          2.38215       -1.31646       -1.30302
H          1.81581        0.20334       -3.35460
H          0.24518       -0.38717       -2.66681
H          2.49819        2.52895       -1.64380
H          1.08559        2.74624       -0.53358
H          3.15018        0.86182        0.04195
