19
	Energy:    1820.6774811
C         -0.27965       -1.09843       -1.17352
C          0.80142       -0.30150       -0.41688
C          1.97863        0.04920       -1.31687
C          1.05919        0.92581       -2.16861
O          1.34211        2.29032       -1.88584
C          0.15865        3.03598       -1.69327
O         -0.50664        2.60628       -0.52063
C         -1.13202        1.36791       -0.77795
C         -0.14554        0.37378       -1.39690
H          0.15732       -1.81527       -1.90167
H         -1.15090       -1.37442       -0.54180
H          0.96758       -0.91968        0.49055
H          2.78874        0.60247       -0.79422
H          2.33222       -0.86486       -1.84405
H          1.08783        0.69711       -3.25560
H          0.44398        4.09837       -1.55077
H         -0.49441        3.02777       -2.59887
H         -1.55062        0.96545        0.16942
H         -1.98877        1.52067       -1.47099
