19
	Energy:     948.3328043
C          0.08128        0.20369        0.07200
C          1.58580       -0.10221        0.08852
C          2.14020       -1.03659       -0.97499
C          3.00012       -1.68950        0.10033
C          2.24579       -0.90824        1.20113
C          2.80588        0.46031        1.56982
O          2.35901        1.04286        0.36786
C          1.26451       -1.64602        2.07738
O          0.71026       -1.08351        3.00825
H         -0.20689        0.76640        0.98489
H         -0.16182        0.81783       -0.81999
H         -0.50652       -0.73756        0.03000
H          1.34519       -1.75883       -1.26733
H          2.65558       -0.56289       -1.83733
H          2.90321       -2.79678        0.12773
H          4.05334       -1.33522        0.04017
H          2.28199        0.93445        2.43033
H          3.91330        0.45988        1.66281
H          1.05070       -2.69238        1.88632
