19
	Energy:     129.0753963
C          1.61633       -0.32759        0.06700
O          0.23639       -0.06705       -0.06985
C         -0.38380        0.59394        1.03437
C         -0.11295       -0.13152        2.38537
C          0.04391        2.09339        1.10477
C         -0.58751        2.85522        2.19240
C         -1.09816        3.46739        3.09944
C         -1.86093        0.55218        0.70663
O         -2.70194        0.27504        1.54786
H          1.80570       -1.12345        0.81560
H          1.96843       -0.73489       -0.90300
H          2.21405        0.58929        0.23390
H         -0.34361       -1.21349        2.29125
H          0.94434       -0.02013        2.70055
H         -0.73673        0.27959        3.20648
H          1.12914        2.17944        1.29439
H         -0.17666        2.60134        0.14780
H         -1.56862        4.04472        3.85430
H         -2.18071        0.78080       -0.31081
