19
	Energy:     536.0666649
C         -2.80718        0.00968        1.47983
C         -2.07287        0.07828        0.14259
C         -1.01218       -1.04610       -0.06848
C         -1.19280       -1.88564       -1.33213
C         -0.06491        0.06318       -0.21705
O          1.14003        0.05026       -0.41588
C         -0.96710        1.18465        0.07011
C         -1.06011        2.16355       -1.06835
O         -2.10943        2.34538       -1.66534
H         -3.46182       -0.88675        1.49768
H         -2.08822       -0.05068        2.32465
H         -3.43525        0.91640        1.60442
H         -2.77244        0.12998       -0.72282
H         -0.74859       -1.63670        0.83609
H         -2.04698       -2.58061       -1.19018
H         -1.39272       -1.24557       -2.21852
H         -0.27505       -2.48194       -1.51941
H         -0.66462        1.64315        1.03631
H         -0.18452        2.74171       -1.34477
