19
	Energy:     180.6324454
C          1.00810        0.58745       -1.09408
C          0.98334       -0.78478       -0.41540
C          1.53841       -1.82442       -1.37884
C          2.69920       -2.45010       -1.09842
C          3.40787       -2.12693        0.21140
C          2.71506       -2.76488        1.38201
O          1.57751       -1.98150        1.58439
C          1.84579       -0.78477        0.87308
O          3.21572       -0.77231        0.49400
H          0.60361        1.35979       -0.40581
H          2.04471        0.87016       -1.37868
H          0.37760        0.57289       -2.00886
H         -0.06818       -1.02426       -0.14476
H          1.03588       -2.01388       -2.32247
H          3.14376       -3.13263       -1.81574
H          4.47147       -2.44536        0.17326
H          2.47418       -3.83377        1.19622
H          3.35308       -2.67389        2.28931
H          1.61430        0.07438        1.53868
