19
	Energy:    1415.0897088
C          1.39214       -0.01002       -0.08846
O          0.00765       -0.11197        0.15808
C         -0.34623        0.72228        1.24263
C         -0.00916        0.23187        2.65660
C         -0.61225        2.21864        0.98793
O         -0.12856        2.62924       -0.27512
C         -1.79232        1.22305        1.10259
C         -2.51765        1.00625       -0.15738
C         -3.12280        0.85424       -1.18889
H          1.99990       -0.44597        0.73406
H          1.61170       -0.60016       -0.99983
H          1.70905        1.03381       -0.29232
H         -0.40439       -0.79441        2.81863
H          1.09210        0.21099        2.78071
H         -0.42832        0.90525        3.43358
H         -0.40647        2.87734        1.86048
H         -0.74956        2.36164       -0.99483
H         -2.38187        1.39720        2.02490
H         -3.65451        0.72104       -2.09324
