19
	Energy:    1369.8320996
O          1.06696        0.32990       -0.43477
C          0.16133       -0.12919        0.24353
C         -0.48011        0.69953        1.31977
C         -1.13673        1.94307        0.70244
C         -1.67706        2.81827        1.83238
C         -2.52284        2.06166        2.87078
C         -3.48764        0.95240        2.52848
C         -2.06653        0.61193        3.03073
O         -1.46918       -0.08469        1.95287
H         -0.16864       -1.14838        0.06708
H          0.32205        0.97965        2.04177
H         -0.40666        2.53930        0.11230
H         -1.95833        1.62764        0.02302
H         -0.80137        3.22521        2.38429
H         -2.24495        3.68003        1.42300
H         -2.70526        2.55654        3.84944
H         -4.30302        1.01962        3.28062
H         -3.72219        1.08891        1.45238
H         -2.22407        0.02695        3.96097
