19
	Energy:    1357.4879727
C          0.26113       -2.37380       -0.30401
C         -0.84163       -1.34770       -0.05634
O         -1.57465       -1.15759       -1.25674
C         -2.56152       -0.16640       -1.02823
C         -2.53316        0.86103       -2.13032
C         -2.02614        1.26022       -0.73876
C         -0.50884        1.16378       -0.46150
C         -0.24649       -0.03427        0.40032
O          0.36650        0.05898        1.45294
H          0.83731       -2.55689        0.62812
H         -0.18809       -3.33462       -0.63370
H          0.95430       -2.01393       -1.09461
H         -1.51754       -1.74825        0.73414
H         -3.61908       -0.49516       -0.94253
H         -1.68251        0.88485       -2.84384
H         -3.43437        1.48655       -2.30206
H         -2.67874        1.55534        0.11043
H          0.04771        1.02385       -1.41314
H         -0.13551        2.09704        0.01119
