19
	Energy:    2025.0672852
C          2.59489       -1.15134        1.50455
C          1.96320       -0.28136        0.42443
C          2.23339       -0.86974       -0.96069
O          2.26353        0.08224       -1.97409
C          3.51813       -0.48302       -1.59634
C          4.25914       -0.95871       -2.86169
C          5.27019        0.24449       -2.70504
C          4.45697        0.60487       -1.53638
O          4.52861        1.56434       -0.78509
H          2.18549       -2.18302        1.45863
H          3.69714       -1.18978        1.36895
H          2.37445       -0.72313        2.50495
H          0.86480       -0.23785        0.58307
H          2.36362        0.75182        0.51113
H          1.83832       -1.86114       -1.26657
H          4.74551       -1.94355       -2.69204
H          3.64441       -0.88306       -3.78677
H          6.29820       -0.02778       -2.38312
H          5.18174        1.02741       -3.48776
