19
	Energy:    1417.5401195
O         -1.17917        3.97037       -0.64454
C         -1.17813        2.57274       -0.51358
C         -1.26823        1.94817       -1.89895
C          0.16995        2.04088       -2.38975
C          1.04513        1.74121       -1.15977
C          0.59406        0.65081       -0.16030
C          1.77180        0.20210        0.65847
O          2.14223       -0.95915        0.60477
C          0.19593        2.12965        0.02217
H         -1.25226        4.34088        0.27377
H         -2.03942        2.25878        0.11852
H         -1.53628        0.87622       -1.78797
H         -2.02638        2.40374       -2.57117
H          0.37488        1.38035       -3.25816
H          0.37800        3.09323       -2.68495
H          2.11731        2.03519       -1.12898
H          0.11241       -0.12813       -0.78683
H          2.30206        0.89653        1.30343
H          0.64306        2.57115        0.93872
