19
	Energy:    1373.2464785
O          0.25184       -0.16894        0.23996
C         -0.80941        0.66039        0.61920
C         -2.14234       -0.03605        0.48623
C         -3.24874        0.46764        1.41997
C         -4.53527        0.59360        0.65566
C         -4.68278        1.36891       -0.43720
C         -3.60267        2.22111       -1.08624
O         -2.36333        2.22691       -0.40573
C         -1.73785        0.97443       -0.58006
H          0.41200       -0.76003        1.01980
H         -0.54646        1.62683        1.10245
H         -2.20761       -1.04612        0.02798
H         -3.37220       -0.24829        2.25947
H         -2.99701        1.45745        1.86178
H         -5.39039        0.02020        1.00170
H         -5.65785        1.38019       -0.91510
H         -3.46875        1.91964       -2.15052
H         -3.97285        3.26702       -1.10630
H         -1.08166        0.88159       -1.47322
