19
	Energy:     452.7404976
C          1.33267        0.25241        0.28633
O          1.30005        1.26455        1.26366
C          0.57610        2.34467        0.70398
C         -0.83389        2.38128        1.27116
C         -1.60081        1.78607        0.10187
C         -1.20649        0.33299       -0.14599
C          0.21119        0.51905       -0.69904
C          0.27745        2.02419       -0.77171
O         -1.04127        2.45096       -1.00197
H          2.31146        0.31824       -0.23958
H          1.23053       -0.75706        0.73761
H          1.08905        3.31572        0.87600
H         -0.96423        1.88797        2.25863
H         -1.16568        3.44178        1.34349
H         -2.69866        1.91677        0.21499
H         -1.31607       -0.36931        0.70844
H         -1.85591       -0.01253       -0.98179
H          0.31154       -0.05230       -1.64824
H          1.06740        2.38751       -1.46488
