19
	Energy:     590.1712081
C          1.33350       -0.13238       -0.12956
O         -0.00600        0.30864       -0.10811
C         -0.36524        0.71918        1.19717
C         -1.84221        0.62023        1.29998
C         -2.42622        1.86265        1.29845
C         -1.41158        2.95469        1.20469
C         -1.10901        3.52808        2.56352
O         -0.07128        2.59521        2.76764
C         -0.10225        2.22250        1.40074
H          1.45166       -1.07345        0.45128
H          1.61017       -0.35706       -1.17997
H          2.03254        0.65585        0.22737
H          0.12928        0.12062        1.99911
H         -2.40132       -0.30597        1.31501
H         -3.49546        2.02247        1.33896
H         -1.51342        3.62266        0.32347
H         -0.66153        4.54603        2.49789
H         -1.94273        3.44615        3.29580
H          0.80858        2.65074        0.92434
