19
	Energy:    1181.7357244
C         -0.16584       -0.21984       -0.28982
C          1.35631       -0.03929       -0.18005
C          1.83636        1.35329        0.19418
O          3.22173        1.18936        0.07898
C          3.11244        0.43137        1.24948
C          1.90158        1.18951        1.71836
O          1.22415        0.02585        2.10153
C          1.98038       -0.58049        1.09696
C          2.24326       -2.07283        1.24692
H         -0.70485        0.16307        0.60197
H         -0.53680        0.33415       -1.17749
H         -0.40463       -1.29622       -0.41920
H          1.84230       -0.38794       -1.12137
H          1.41158        2.25200       -0.30189
H          3.89016        0.38302        2.04346
H          2.17750        2.01224        2.41429
H          2.71300       -2.27594        2.23207
H          1.28697       -2.63214        1.17904
H          2.92525       -2.41681        0.44145
