19
	Energy:    1855.4328251
O          2.16599        2.55399       -0.64007
C          2.63684        1.23121       -0.67893
C          3.68737        0.87406       -1.74163
C          2.21017        0.56354       -1.97740
C          2.04185       -0.87396       -2.43322
C          2.00148       -0.31691       -3.86725
C          1.76305        1.10263       -3.32255
C          2.31779        0.32485        0.47720
O          1.56128        0.69408        1.36071
H          1.17517        2.51193       -0.69351
H          4.11062        1.84576       -2.07603
H          4.35050        0.12245       -1.26180
H          2.83949       -1.62150       -2.22927
H          1.02872       -1.20410       -2.11470
H          3.04112       -0.35123       -4.26939
H          1.27159       -0.74378       -4.58709
H          2.34044        1.91261       -3.81960
H          0.67356        1.31298       -3.24750
H          2.76134       -0.66433        0.53607
