19
	Energy:     285.0059013
O          0.97253       -0.00104       -0.74628
C         -0.10474       -0.00386       -0.17038
C         -0.84929       -1.27730        0.08646
C         -2.27109       -1.11975       -0.51768
C         -2.25507       -0.77707       -2.00979
C         -2.25952        0.75118       -2.01150
C         -2.27741        1.09702       -0.51982
C         -0.85705        1.26533        0.08342
O         -2.90452       -0.01267        0.10038
H         -0.31076       -2.14470       -0.35338
H         -0.94869       -1.43615        1.18190
H         -2.82434       -2.06661       -0.33940
H         -1.43792       -1.26798       -2.58034
H         -3.22986       -1.10183       -2.43910
H         -1.44489        1.24545       -2.58274
H         -3.23616        1.06899       -2.44258
H         -2.83750        2.04105       -0.34457
H         -0.32448        2.13546       -0.35888
H         -0.95814        1.42646        1.17822
