19
	Energy:     160.6939275
C          1.52741       -0.37103        0.05939
O          0.29743       -0.41121        0.68058
C         -0.44281        0.69009        0.96581
O         -0.04141        1.80687        0.66606
C         -1.77002        0.51735        1.65433
C         -2.57237        1.79359        1.92029
C         -3.49398        1.33882        2.99787
C         -2.99133        0.21362        3.61933
C         -1.69179       -0.18262        3.00922
H          2.24645        0.21347        0.67241
H          1.91216       -1.40533       -0.05313
H          1.43302        0.08768       -0.94815
H         -2.42391       -0.12259        1.01431
H         -1.95857        2.61937        2.34169
H         -3.08654        2.11990        0.99083
H         -4.37060        1.87230        3.34047
H         -3.43124       -0.23139        4.50178
H         -0.88236        0.21609        3.65905
H         -1.57602       -1.27835        2.86462
