19
	Energy:    1255.5609693
C         -2.58170        0.62017       -2.31500
C         -2.24108        0.70646       -0.85267
O         -3.13684        0.62067       -0.02808
O         -0.96705        0.88195       -0.41856
C          0.13720        0.99461       -1.24988
C          1.42638        1.44237       -0.54339
C          1.95162        1.97008       -1.88584
C          0.49585        2.42077       -1.70139
C          0.82307        2.82601       -0.25697
H         -2.05622       -0.24267       -2.77403
H         -3.67512        0.48231       -2.45577
H         -2.27353        1.55495       -2.82747
H          0.23551        0.14798       -1.97222
H          2.01093        0.83421        0.17933
H          2.73566        2.76402       -1.84537
H          2.14970        1.21487       -2.68427
H         -0.07943        3.03297       -2.42795
H          1.54093        3.67027       -0.12047
H         -0.02485        2.87599        0.46403
