19
	Energy:     583.5575517
O          1.00415        0.74927        0.37444
C         -0.20766        0.16110       -0.01956
C         -1.39709        1.05508        0.37586
C         -2.67616        0.68872       -0.37931
O         -2.64505        1.88266       -1.13298
C         -1.55224        2.35599       -0.38357
C         -2.02646        3.34360        0.62860
C         -2.03401        2.79704        1.88739
C         -1.55074        1.39054        1.87492
H          1.26502        0.33463        1.23771
H         -0.17282        0.01391       -1.12085
H         -0.32987       -0.85001        0.43425
H         -2.57726       -0.19679       -1.04548
H         -3.58409        0.67277        0.26485
H         -0.66651        2.66507       -0.98046
H         -2.33093        4.35786        0.40779
H         -2.31812        3.34301        2.77708
H         -0.57694        1.39723        2.40759
H         -2.24098        0.67478        2.36943
