19
	Energy:    1408.6477248
C         -2.24603        1.85038       -0.29260
C         -1.06277        2.05330        0.69292
C         -0.46213        0.68165        1.14280
C          0.24836       -0.00219        0.00937
O          1.42992       -0.29280        0.10796
C         -0.18222        3.27988        0.40550
C          0.25969        3.39782        1.86114
C         -1.25052        3.18372        1.71412
O         -1.26091        4.14204        0.68281
H         -3.02560        1.22084        0.18580
H         -2.73287        2.79860       -0.60348
H         -1.90012        1.34903       -1.21860
H          0.23428        0.74267        1.99621
H         -1.28933        0.02997        1.49586
H         -0.28153       -0.25335       -0.90230
H          0.46475        3.43957       -0.48434
H          0.92489        2.63371        2.30049
H          0.55268        4.42762        2.17209
H         -1.99866        3.21805        2.53565
