19
	Energy:    3059.1768904
C         -0.12684       -0.31063        3.17257
C         -0.41196        1.17877        3.01249
O         -1.15982        1.42382        1.84493
C          0.18294        1.86323        1.83931
C          0.30640        3.39943        1.94337
C          1.44252        4.08402        1.23242
C          0.07972        4.03848        0.56176
O         -0.93074        4.87541        1.08038
C         -0.83530        4.29604        2.35398
H         -1.04650       -0.82414        3.52261
H          0.20106       -0.77983        2.21983
H          0.67070       -0.44805        3.93154
H         -0.81678        1.77321        3.85862
H          0.80117        1.27012        1.13106
H          1.70450        5.09119        1.62105
H          2.19580        3.41353        0.76802
H         -0.27176        3.23574       -0.12672
H         -0.50912        5.05714        3.09579
H         -1.76596        3.75852        2.63533
