19
	Energy:    1329.1536161
C         -2.23840        4.61180       -0.56725
C         -1.68538        3.28444       -0.07394
C         -0.19258        2.91321       -0.08158
C         -1.06364        1.79125        0.48216
C         -1.84727        2.76194        1.36213
C         -2.07484        1.91519       -0.65688
O         -0.57284        0.59142        0.95781
C          0.12708       -0.29851        0.21165
O          0.37489       -0.08700       -0.96605
H         -1.79786        5.44223        0.02263
H         -1.98290        4.74755       -1.63866
H         -3.34184        4.62358       -0.44928
H          0.27539        2.73761       -1.07827
H          0.46400        3.45361        0.63995
H         -2.87157        2.44747        1.67168
H         -1.27625        3.29334        2.15928
H         -1.70906        1.68542       -1.68481
H         -3.11139        1.55787       -0.45286
H          0.47383       -1.21732        0.67106
