19
	Energy:    1389.1274328
O          0.49836        0.35053       -0.06991
C         -0.78685        0.84736        0.21757
C         -1.89987       -0.19769        0.02873
C         -3.22905        0.54347       -0.05657
O         -3.27789        1.51343        0.96048
C         -2.16218        2.40914        0.87612
C         -1.10506        2.27062       -0.26777
C         -0.05318        2.85541        0.68396
C         -0.87264        1.79614        1.44005
H          0.78462       -0.14973        0.73766
H         -1.76433       -0.78617       -0.90383
H         -1.87341       -0.88407        0.90218
H         -3.34363        1.04748       -1.04360
H         -4.07125       -0.17301        0.04177
H         -2.43453        3.44341        1.19451
H         -1.25379        2.56988       -1.32731
H          1.01456        2.61962        0.46978
H         -0.19313        3.91764        0.99793
H         -0.72036        1.50841        2.50209
