19
	Energy:    1697.5982589
C          3.49893       -0.79788        1.40375
C          2.41745       -0.24091        0.46194
O          2.91113        0.49036       -0.64439
C          2.52640        1.72163       -0.08126
C          1.91713        1.06222        1.12222
C          0.94822       -0.06158        0.83583
C         -0.11572        0.19119       -0.24201
C          0.46084       -0.80635        2.05721
O          0.76415       -0.45629        3.18800
H          3.06072       -1.34731        2.26075
H          4.12521       -1.51446        0.83336
H          4.16779        0.00343        1.78843
H          3.40661        2.33971        0.19883
H          1.79002        2.26538       -0.70938
H          1.46157        1.70216        1.90828
H         -0.53964       -0.78190       -0.56723
H         -0.93385        0.81180        0.18003
H          0.28143        0.68815       -1.14822
H         -0.18980       -1.66465        1.92725
