19
	Energy:    1285.7749443
C         -2.22183        2.86870        2.32213
C         -0.79968        2.69331        1.78999
C         -0.57771        3.61216        0.62056
O          0.28987        4.46985        0.66316
C         -0.59164        1.23292        1.34632
C          0.87316        0.87792        1.19039
C          0.04836        0.26585        2.33748
C         -0.55659       -1.09239        2.12468
O         -1.16913       -1.63290        3.03076
H         -2.38595        2.20231        3.19589
H         -2.38122        3.91859        2.64942
H         -2.97023        2.61988        1.53848
H         -0.09145        2.96292        2.60719
H         -1.18965        3.51589       -0.27119
H         -1.15845        0.84018        0.47195
H          1.15871        0.04614        0.51161
H          1.66018        1.47091        1.70318
H         -0.04686        0.73744        3.33978
H         -0.45500       -1.60588        1.17314
