19
	Energy:    1341.1938477
C          1.58864       -0.16700        1.36478
C          1.12019        0.14793       -0.05931
C          1.92853       -0.60764       -1.14897
C          3.36259       -0.08525       -1.22835
C          2.44094        0.04798       -2.45089
C          1.81298        1.38612       -2.76825
O          2.01247        2.38209       -2.09031
C          1.94072       -2.12300       -1.05793
O          2.44494       -2.81357       -1.93081
H          1.48786       -1.24584        1.59771
H          2.64821        0.13591        1.50074
H          0.96688        0.39822        2.09075
H          0.05108       -0.13647       -0.15863
H          1.18057        1.24516       -0.17726
H          3.59616        0.93708       -0.86342
H          4.19137       -0.73460       -1.58313
H          2.33710       -0.73304       -3.23290
H          1.20954        1.47419       -3.66525
H          1.48119       -2.61971       -0.21182
