19
	Energy:     122.2368924
C         -1.83893        2.99815       -1.22601
C         -1.39580        1.53467       -1.28622
C         -2.61091        0.62701       -1.46332
C         -2.25486       -0.75775       -2.00496
C         -1.24216       -1.58721       -1.26452
C         -0.41055       -1.23288       -0.27270
C         -0.21440        0.09812        0.34761
O          0.50415        0.15274        1.33249
O         -0.74637        1.25982       -0.10111
H         -2.53155        3.16261       -0.37230
H         -0.95272        3.65573       -1.09719
H         -2.35153        3.28846       -2.16810
H         -0.70561        1.42983       -2.15292
H         -3.16866        0.56222       -0.50276
H         -3.29734        1.06280       -2.22357
H         -3.20640       -1.33182       -2.02713
H         -1.89529       -0.66905       -3.05302
H         -1.17931       -2.62073       -1.59514
H          0.21443       -2.02789        0.12749
