19
	Energy:      52.4754761
C         -3.59390        2.66041       -0.73484
C         -2.06773        2.57014       -0.93859
C         -1.43879        3.95740       -0.75197
O         -1.77373        2.16659       -2.25742
C         -1.47151        1.60619        0.08347
O         -1.56934        1.86585        1.27530
C         -0.75490        0.34416       -0.31813
C         -1.67867       -0.58022       -0.98644
C         -2.44477       -1.30958       -1.56610
H         -3.84001        3.01114        0.29075
H         -4.04300        3.36335       -1.46811
H         -4.06061        1.66154       -0.87957
H         -1.60654        4.34603        0.27543
H         -0.34389        3.90345       -0.93771
H         -1.87614        4.67682       -1.47753
H         -2.32707        1.37798       -2.48675
H          0.08285        0.60180       -0.99782
H         -0.34440       -0.16808        0.57788
H         -3.12095       -1.92926       -2.09441
