19
	Energy:    1890.1814850
O         -0.55000       -0.20656       -0.12661
C         -0.56845        0.78591        0.86796
C         -1.83156        1.65140        0.68380
C         -2.50731        0.68768        1.64704
C         -1.16644        0.21658        2.17551
C         -3.83386        0.70252        2.37924
C         -4.58279        0.65628        1.05034
C         -3.45829       -0.37629        1.12513
O         -3.83112       -0.70373        2.44221
H          0.14752       -0.85795        0.14556
H          0.40681        1.31965        0.90776
H         -1.69437        2.61858        1.21772
H         -2.22197        1.77715       -0.34888
H         -0.88827        0.87693        3.02747
H         -1.00989       -0.86245        2.39139
H         -4.09269        1.32767        3.26103
H         -5.61124        0.23294        1.10856
H         -4.47922        1.52067        0.35409
H         -3.23072       -1.16077        0.37076
