19
	Energy:    1334.3769943
C         -0.12236        0.16666       -0.04126
C          1.39518        0.02862        0.08549
C          1.86605       -0.98768        1.11832
O          0.99562       -2.08755        1.35941
C          1.76970       -2.94017        0.53589
C          2.58132       -1.78271        0.05397
C          3.93010       -1.45783       -0.50595
O          3.38539       -0.43352       -1.31644
C          2.05842       -0.81897       -0.99008
H         -0.52958        0.64908        0.87182
H         -0.36215        0.80241       -0.91911
H         -0.61196       -0.82088       -0.17948
H          1.92194        1.00285        0.19069
H          2.46755       -0.68301        2.00309
H          2.36750       -3.62689        1.17499
H          1.19826       -3.43563       -0.27794
H          4.64024       -1.09849        0.26907
H          4.31459       -2.27361       -1.15721
H          1.48766       -1.31025       -1.81033
