19
	Energy:    2055.4024978
C          0.04103        0.00582        0.01822
C          1.56757       -0.06611        0.06726
C          2.23059       -1.37645       -0.30097
O          3.03236       -0.74107       -1.27192
C          2.35407        0.48440       -1.06943
C          3.10820        1.44183       -0.15167
O          2.77123        2.79772       -0.25423
C          3.79548        0.96531        1.10366
C          2.28893        0.86090        1.05989
H         -0.38112       -0.48784        0.91810
H         -0.29301        1.06478       -0.00414
H         -0.34586       -0.50421       -0.88946
H          2.81474       -1.82359        0.53202
H          1.54238       -2.08701       -0.81132
H          1.80505        0.86032       -1.96119
H          3.56415        3.22502       -0.66714
H          4.33076        0.00014        0.99307
H          4.18234        1.76871        1.76498
H          1.68835        1.71454        1.44996
