19
	Energy:    1021.6027060
C         -0.13935        1.20189        0.59396
O         -0.18562        0.04652       -0.21905
C          1.17941        0.19783       -0.55974
C          1.45264        0.11551       -2.09154
C          1.18281        1.49244       -2.75578
C          2.09814        2.53580       -2.14114
C          0.95283        2.64572       -1.16908
O          0.06328        2.06945       -2.11831
C          1.18031        1.62709       -0.00322
H         -0.97813        1.91131        0.41974
H         -0.03605        0.88066        1.65584
H          1.73544       -0.56009        0.03857
H          2.52213       -0.12469       -2.27625
H          0.83567       -0.69893       -2.52652
H          1.20734        1.49469       -3.86702
H          3.11720        2.26286       -1.78837
H          2.08715        3.43646       -2.79530
H          0.71757        3.68224       -0.84374
H          1.99973        1.90122        0.69525
