19
	Energy:     156.4092162
C         -1.93731        0.89057       -6.05493
C         -1.81122        2.11837       -5.15371
C         -1.32501        1.76235       -3.81255
C         -0.92450        1.47060       -2.70703
C         -0.41363        1.10354       -1.37200
O         -0.15228       -0.27484       -1.31603
C          1.18089       -0.39342       -1.71573
C          1.78918        0.99049       -1.56735
O          0.76679        1.81368       -1.08852
H         -2.65287        0.15395       -5.62863
H         -2.31267        1.19744       -7.05566
H         -0.95308        0.39286       -6.19339
H         -1.10726        2.84596       -5.61657
H         -2.80083        2.60972       -5.05296
H         -1.17663        1.35553       -0.60248
H          1.69970       -1.14443       -1.08212
H          1.20727       -0.73092       -2.77520
H          2.64224        0.99397       -0.85574
H          2.13274        1.38275       -2.54964
