19
	Energy:     578.0857045
C         -0.01273        2.54913        0.01249
C         -0.86195        1.27595        0.00771
C         -1.98750        1.15207        1.04721
C         -2.72923        0.32938       -0.02695
C         -1.93387        1.12430       -1.08351
C         -2.19234       -1.13933        0.00570
O         -0.79702       -1.17335        0.04126
C         -0.07275       -0.02271        0.04449
O          1.14761       -0.05174        0.07559
H          0.60679        2.58832        0.93325
H          0.65235        2.56473       -0.87665
H         -0.66402        3.44815       -0.01562
H         -1.77392        0.69190        2.03711
H         -2.50166        2.13553        1.16848
H         -3.83945        0.35866       -0.05528
H         -1.67108        0.63865       -2.04910
H         -2.44063        2.10393       -1.25606
H         -2.59068       -1.65640        0.90412
H         -2.54533       -1.67989       -0.89785
