19
	Energy:    1380.1055066
C          3.11050       -2.08188        1.62358
C          1.96500       -1.42956        0.84402
C          1.47499       -2.14490       -0.39536
C         -0.05519       -2.18606       -0.49354
C          2.30441       -0.83596       -0.54657
C          3.55654       -1.19605       -1.32138
O          3.81326       -0.64872       -2.38218
C          1.48655        0.33051       -1.07478
O          0.57935        0.82879       -0.42695
H          2.67888       -2.67071        2.45904
H          3.72617       -2.77414        1.01610
H          3.76224       -1.29073        2.04890
H          1.27700       -0.75317        1.39500
H          2.01668       -3.10030       -0.57865
H         -0.43064       -3.01906        0.13656
H         -0.55857       -1.26215       -0.15140
H         -0.34430       -2.38471       -1.54612
H          4.24888       -1.94375       -0.95562
H          1.74035        0.77674       -2.03032
