19
	Energy:     688.6580078
C          1.39489        1.35145       -3.36319
C          0.51291        0.48456       -2.47370
C         -0.22211       -0.72152       -3.03327
C         -0.30361       -0.99155       -1.52558
O         -1.16867        0.03131       -1.05500
C         -0.63812        1.14729       -1.74519
C          1.10689       -0.40812       -1.39308
C          1.53273        0.15681       -0.05589
O          2.62866       -0.12518        0.40071
H          1.89325        2.13208       -2.75113
H          2.17031        0.72512       -3.85197
H          0.77765        1.83975       -4.14614
H         -1.17554       -0.56929       -3.58987
H          0.45193       -1.43397       -3.56798
H         -0.55371       -2.00139       -1.13768
H         -1.38495        1.57425       -2.45221
H         -0.29625        1.93802       -1.04368
H          1.89811       -1.08552       -1.80217
H          0.87946        0.79962        0.52280
