19
	Energy:    3108.6724655
C         -1.11323        2.22675        4.34995
C         -0.56391        1.44400        3.15871
O          0.52435        0.58514        3.39404
C         -0.73571       -0.02753        3.23452
C         -1.28531       -0.04114        1.81128
C         -2.73397       -0.51038        1.60656
C         -0.56610        0.63740        0.66052
O          0.82617        0.50432        0.71688
C         -1.15554        1.50773        1.75488
H         -0.59089        1.93817        5.28712
H         -0.95571        3.31093        4.17475
H         -2.20190        2.03802        4.46415
H         -1.30647       -0.32759        4.14083
H         -3.42585        0.01751        2.29784
H         -3.06989       -0.34690        0.56049
H         -2.79192       -1.59693        1.82395
H         -1.05420        0.66729       -0.33678
H          1.18894        1.40398        0.50997
H         -2.18784        1.91308        1.66674
