19
	Energy:    1533.3631969
C          0.00484        0.00385        0.03184
C          1.52415        0.15344        0.01304
C          2.26913       -0.88482       -0.81191
C          2.28382       -0.96650        0.71600
C          3.79531       -0.82500        0.93052
O          4.39689       -2.05914        0.57549
C          4.52022       -1.93039       -0.82039
C          3.76630       -0.64875       -1.09452
O          4.21204        0.10995       -0.02720
H         -0.39240        0.43797        0.97270
H         -0.42582        0.55836       -0.82747
H         -0.31723       -1.05819       -0.03359
H          1.97676        1.16622        0.07881
H          1.70461       -1.72223       -1.27809
H          1.73364       -1.85949        1.08543
H          4.07316       -0.52067        1.96108
H          5.59620       -1.80067       -1.07138
H          4.09241       -2.79617       -1.37072
H          3.95735       -0.21291       -2.09770
