19
	Energy:    1553.4150204
O          0.66175       -0.15667        1.27886
C         -0.29123       -0.07737        0.51973
C         -0.92270       -1.25790       -0.14313
C         -1.81537       -0.58364       -1.18595
C         -2.26201        0.68886       -0.48475
C         -0.97795        1.20698        0.17815
C         -0.09372        2.02175       -0.77701
C          0.71760        3.10319       -0.17164
O         -0.49721        3.36019       -0.85335
H         -0.20226       -1.93344       -0.65175
H         -1.50098       -1.81151        0.62778
H         -1.18458       -0.28066       -2.05193
H         -2.63425       -1.23134       -1.56420
H         -2.78582        1.43233       -1.12287
H         -2.96519        0.37184        0.32048
H         -1.26169        1.80054        1.07634
H          0.23713        1.63388       -1.76349
H          0.56619        3.37206        0.89493
H          1.53992        3.53783       -0.77674
