19
	Energy:    1360.0996889
O          1.53830        3.58136        1.86374
C          2.93671        3.42686        1.88086
C          3.35529        1.96162        1.64670
C          4.55320        1.68985        0.71867
C          3.11836        1.42056        0.23651
C          2.66260       -0.05063        0.15773
O          3.04496       -0.62657       -1.07021
C          1.19792       -0.12271        0.34352
C         -0.00601       -0.14425        0.44406
H          1.12990        2.83715        2.37793
H          3.35576        4.09544        1.10260
H          3.34001        3.75830        2.86584
H          3.21783        1.23606        2.47478
H          5.02488        2.57704        0.24270
H          5.14262        0.78735        0.99351
H          2.70723        2.15276       -0.48997
H          3.12632       -0.64597        0.96008
H          2.51310       -0.21536       -1.80231
H         -1.06310       -0.17676        0.52252
