19
	Energy:    1543.6884328
C          1.53270        0.03956       -1.04742
C          0.12827       -0.11439       -0.52290
C         -0.75141        0.90100       -0.59460
C         -2.16271        0.78277       -0.03867
O         -2.37979       -0.35033        0.79627
C         -1.87577       -1.52933        0.20988
C         -0.36171       -1.40791        0.06603
C          0.49983       -2.61330        0.15780
O          0.32193       -1.72353        1.24719
H          2.25870       -0.13623       -0.22644
H          1.70960       -0.69793       -1.85787
H          1.71300        1.05643       -1.45722
H         -0.46649        1.83958       -1.06152
H         -2.31831        1.67306        0.60538
H         -2.91269        0.82739       -0.85723
H         -2.14601       -2.39747        0.84867
H         -2.34652       -1.69749       -0.78486
H          0.02730       -3.58031        0.42917
H          1.56327       -2.55800       -0.15180
