19
	Energy:     306.7859783
C         -0.13968        4.10978       -1.42826
C          0.39311        4.64533       -2.78672
O          1.37867        5.66653       -2.66276
C          2.58208        5.33632       -3.34010
C          3.28016        4.42300       -2.46526
C          3.42579        3.72393       -1.51355
C          3.05130        3.08398       -0.27378
O          1.79883        3.64979        0.08286
C          0.72017        3.07537       -0.64931
H         -0.45559        4.94450       -0.76680
H         -1.05993        3.54664       -1.70107
H          0.69273        3.77706       -3.42004
H         -0.46308        5.11879       -3.31345
H          2.40529        4.90246       -4.34989
H          3.18485        6.26043       -3.45543
H          3.01513        1.97510       -0.36460
H          3.79153        3.34835        0.50903
H          1.00992        2.25434       -1.34698
H          0.06088        2.60375        0.11067
