19
	Energy:    1391.5757826
C          0.06603        0.26002       -0.91140
C          1.58254        0.18100       -0.64200
C          2.14740       -0.75209        0.43581
O          2.09430       -2.14644        0.34493
C          3.45913        0.04357        0.47502
C          2.22393        0.96614        0.51978
C          1.57609        0.06742        1.59722
C          2.31066        2.45858        0.57957
O          1.81912        3.06857        1.51485
H         -0.59236        0.25348       -0.02615
H         -0.14483        1.19415       -1.47237
H         -0.22582       -0.60043       -1.54869
H          2.13850        0.19980       -1.61127
H          2.61066       -2.48301        1.12131
H          4.07140       -0.03213        1.40469
H          4.07435        0.05985       -0.45580
H          2.11201       -0.00939        2.57300
H          0.48032        0.10502        1.73777
H          2.81261        3.00110       -0.21403
