19
	Energy:    1318.5120304
C         -2.31757        1.63238       -2.53539
C         -1.74350        1.82323       -1.13001
O         -0.36686        1.48478       -1.18174
C          0.18099        1.48675        0.11874
C          1.44055        0.61877        0.19966
C          0.14544        0.16432        0.87111
O          0.05335        0.39882        2.24963
C         -1.95774        3.21857       -0.67837
C         -2.15981        4.35176       -0.31325
H         -2.16180        0.57735       -2.84726
H         -3.40593        1.85470       -2.57174
H         -1.79219        2.28904       -3.26311
H         -2.29805        1.14703       -0.44070
H          0.25940        2.43836        0.68492
H          1.68158        0.01359       -0.70247
H          2.22984        0.99489        0.88411
H         -0.44854       -0.64402        0.40119
H          0.58402       -0.31856        2.68128
H         -2.33670        5.34934       -0.00151
