19
	Energy:     751.9258253
C          0.94980        0.26487       -1.80883
O         -0.18187        1.11431       -1.78043
C         -0.31433        1.30469       -0.38602
C          1.11083        1.58343        0.07505
C          1.22720        1.78824        1.59835
O          0.42971        0.92967        2.40210
C         -0.21645       -0.13910        1.72432
C         -0.14861       -0.09809        0.18500
C          1.25510        0.13287       -0.32955
H          0.69871       -0.71981       -2.26285
H          1.79262        0.74071       -2.35832
H         -1.16581        1.96082       -0.10560
H          1.70556        2.34703       -0.47919
H          2.29172        1.66942        1.89126
H          0.91910        2.83264        1.81561
H          0.21704       -1.10043        2.07234
H         -1.28959       -0.11610        2.00835
H         -0.74570       -0.92566       -0.26527
H          2.12378       -0.49922       -0.04579
