19
	Energy:    1697.7954950
C          0.21173       -0.23622        0.30681
C          1.54796        0.27762       -0.23237
O          1.73381        1.63611        0.06132
C          2.89822        1.38606        0.83387
C          2.88141        0.37176        1.97355
C          2.75444       -0.14631        0.57597
O          3.92681       -0.55300       -0.12615
C          4.42220        0.57792       -0.78937
C          4.22968        1.70300        0.17550
H          0.06814        0.01536        1.37691
H         -0.61739        0.22471       -0.26980
H          0.16007       -1.33856        0.18510
H          1.65835        0.05339       -1.31590
H          3.85890        0.17266        2.46163
H          1.94752        0.40259        2.56913
H          5.49260        0.46839       -1.06378
H          3.83481        0.74170       -1.72012
H          5.01675        1.64228        0.95974
H          4.28293        2.70242       -0.30546
