19
	Energy:     517.2565460
O          0.33215       -0.88348       -0.39948
C          0.45797        0.31335       -0.19569
C         -0.14331        0.94444        1.02297
C         -1.14381        2.03351        0.62530
C         -1.96950        2.66608        1.75132
C         -3.13991        2.73861        0.76322
C         -2.47217        1.59797       -0.00855
C         -2.61033        1.62500       -1.50407
O         -1.64200        1.81207       -2.22342
H          1.01075        0.92217       -0.90396
H         -0.64955        0.17128        1.64210
H          0.66959        1.40050        1.62635
H         -0.68083        2.85563        0.02694
H         -2.21316        1.89014        2.51578
H         -1.60581        3.60419        2.22147
H         -4.17346        2.59654        1.14406
H         -3.04132        3.68583        0.18052
H         -2.80158        0.62549        0.42864
H         -3.58637        1.47072       -1.95121
