19
	Energy:    2236.7011811
C         -0.08834        0.10541        0.02682
C          1.43215        0.19062       -0.04920
C          2.31796        1.42682        0.03052
C          3.40973        0.40167        0.37678
O          4.49721        0.76688        1.17995
C          3.67409       -0.49024       -0.85418
C          2.22589       -0.92961       -0.66609
O          1.76139       -2.24666       -0.80507
C          2.36413       -0.58974        0.82572
H         -0.44372        0.63997        0.93207
H         -0.52747        0.58428       -0.87244
H         -0.42654       -0.95094        0.07846
H          2.47936        2.00321       -0.90576
H          2.03265        2.04755        0.90930
H          4.16453        0.77307        2.11411
H          3.91781        0.06510       -1.78514
H          4.38315       -1.31660       -0.61590
H          2.41028       -2.83992       -0.34393
H          1.83336       -0.48535        1.79940
