19
	Energy:    1475.7980769
C          0.30139        0.98333        0.96453
C          1.69621        0.51376        0.50993
C          2.11423       -0.83834        1.12574
C          3.61556       -1.00257        0.94766
O          3.94224       -0.68132       -0.37833
C          3.53378        0.65326       -0.69154
C          2.79672        1.55637        0.33549
O          2.09857        2.16829       -0.71993
C          2.03611        0.78297       -0.96521
H          0.29113        1.10208        2.06834
H          0.00579        1.95369        0.51272
H         -0.45664        0.22403        0.67883
H          1.88518       -0.89163        2.21194
H          1.55798       -1.64210        0.59671
H          4.17983       -0.33485        1.63893
H          3.91494       -2.04535        1.18308
H          4.21640        1.17317       -1.40071
H          3.27278        2.15082        1.14552
H          1.50880        0.37132       -1.85320
