19
	Energy:     517.8031645
O          0.66073        0.07726        1.16949
C         -0.18834        0.06569        0.29219
C         -0.73841        1.37949       -0.21731
C         -1.75305        1.21161       -1.36346
C         -2.73004        0.08992       -1.02254
C         -1.95434       -1.24193       -1.05894
O         -2.58716       -2.20368       -0.24568
C         -1.55787       -2.08919        0.71983
C         -0.70155       -1.26168       -0.21220
H         -1.24221        1.86643        0.64598
H          0.08051        2.04531       -0.56420
H         -2.28339        2.17689       -1.51066
H         -1.23357        0.95493       -2.31370
H         -3.16038        0.29270       -0.01601
H         -3.56449        0.03400       -1.75352
H         -1.73036       -1.58559       -2.09393
H         -1.94787       -1.51162        1.58929
H         -1.09594       -3.06668        0.97893
H          0.06784       -1.91142       -0.68622
