19
	Energy:    2254.2190321
C          1.21251       -0.35160       -0.19144
O         -0.05876        0.19319        0.05295
C         -0.03718        0.72391        1.35388
C         -1.51902        0.64933        1.69352
C         -1.65960        2.15234        1.46668
C         -0.16012        2.16626        1.71179
O          0.66805        3.13073        1.13073
C          0.07631        1.72429        3.17349
C         -0.48588        0.35193        2.74546
H          1.44620       -1.17408        0.52222
H          1.21315       -0.79389       -1.20873
H          1.99768        0.43795       -0.17680
H         -2.20166       -0.19915        1.47293
H         -1.91575        2.35584        0.40307
H         -2.26871        2.72430        2.19950
H          0.47830        3.97048        1.62226
H          1.16300        1.64214        3.41172
H         -0.50120        2.29695        3.93142
H         -0.03400       -0.63497        2.97808
