19
	Energy:    1051.8717073
O         -0.65868        0.98666       -0.29086
C         -0.09183        0.65854       -1.53610
C          0.20244        1.87702       -2.43629
C          1.68626        1.73349       -2.10364
C          1.41173        0.33865       -1.54551
C          1.10920       -0.80763       -2.54552
C         -0.37006       -0.70625       -2.16787
C          2.06564       -0.06311       -0.24419
O          2.64880       -1.12983       -0.13413
H         -0.53259        0.20971        0.31226
H          0.01260        1.60986       -3.50015
H         -0.23658        2.85310       -2.13732
H          2.41352        1.82940       -2.93745
H          1.92024        2.41085       -1.25064
H          1.26346       -0.44675       -3.58762
H          1.55161       -1.81156       -2.36988
H         -1.11627       -0.76402       -2.98813
H         -0.57605       -1.43469       -1.35126
H          2.03206        0.61282        0.60401
