19
	Energy:    3320.3769127
C          1.73832       -0.50268       -1.10440
C          1.82971        0.54332        0.01020
C          3.12974        1.34623        0.01869
C          3.44653        0.72005        1.36104
O          2.46479        0.97810        2.33761
C          2.15235       -0.01623        1.39953
C          2.49364       -1.47702        1.70054
C          1.44845       -2.22799        2.43956
O          2.58706       -1.70474        3.08328
H          0.84380       -1.14078       -0.94770
H          1.64513        0.00966       -2.08511
H          2.64332       -1.14715       -1.12823
H          0.94351        1.21415        0.04905
H          3.87496        1.02462       -0.74041
H          2.99524        2.44449        0.12731
H          4.41214        0.70046        1.90771
H          3.28622       -2.03752        1.16015
H          0.56331       -1.68321        2.83180
H          1.52208       -3.33467        2.46534
