19
	Energy:    1622.7848629
O          1.38237        0.78464       -0.07770
C          0.08223        0.28239        0.06091
C         -0.70986        0.52211       -1.22544
O         -1.78940       -0.35570       -1.35888
C         -0.70665       -0.54340       -2.26356
C         -0.16100       -1.96100       -2.10037
C         -0.39002       -2.53423       -3.45238
C         -0.95766       -1.62670       -4.32152
C         -1.19755       -0.30404       -3.68710
H          1.31876        1.77040        0.02186
H          0.14702       -0.79638        0.31533
H         -0.43429        0.77190        0.91685
H         -0.95671        1.55090       -1.56260
H          0.92688       -1.94903       -1.87945
H         -0.71253       -2.55043       -1.33576
H         -0.13116       -3.54620       -3.73436
H         -1.18859       -1.85567       -5.35342
H         -0.58779        0.47260       -4.19451
H         -2.27788       -0.04500       -3.73218
