19
	Energy:    1384.1012914
O          0.35156        0.34220        0.88520
C         -0.97037        0.61691        0.49608
C         -1.34883        2.08469        0.26236
C         -2.24214        2.02092        1.49624
C         -2.03959        0.50977        1.58631
C         -2.87736       -0.39217        0.64956
C         -2.58931       -1.87262        0.77331
O         -1.40419       -1.76615        0.02204
C         -1.71663       -0.43187       -0.31740
H          0.47974        0.71685        1.79499
H         -0.52309        2.82093        0.36847
H         -1.95087        2.18174       -0.66838
H         -1.70035        2.48152        2.35260
H         -3.28821        2.37999        1.39143
H         -1.80060        0.06229        2.57677
H         -3.85710       -0.01830        0.28124
H         -2.41950       -2.20251        1.82119
H         -3.32728       -2.48799        0.21142
H         -1.91569       -0.29291       -1.40307
