19
	Energy:     235.7482969
C          1.37150        0.68298       -0.13927
C         -0.02397        0.51136        0.37994
C         -1.12454        0.86041       -0.31031
C         -2.40344        0.57311        0.46067
O         -2.37382        1.30464        1.68987
C         -1.20552        0.97811        2.46325
C         -0.33110       -0.07635        1.74271
C         -1.29692       -1.25671        1.47886
O         -2.46098       -0.82663        0.75109
H          1.93970        1.34793        0.54386
H          1.87203       -0.30649       -0.18488
H          1.37091        1.13082       -1.15592
H         -1.10302        1.29717       -1.30388
H         -3.28884        0.87268       -0.13722
H         -0.60803        1.90090        2.62785
H         -1.52368        0.58450        3.45277
H          0.57554       -0.36609        2.31630
H         -0.76919       -2.03959        0.89215
H         -1.61708       -1.69923        2.44684
