19
	Energy:    2128.8272601
C          1.21410       -0.04215       -0.09199
O         -0.17418        0.15332        0.04440
C         -0.44128        0.70301        1.31849
C         -0.15564        2.19071        1.47349
C         -1.27481        2.98443        0.83935
C         -1.46225        2.37109        2.20918
C         -1.91280        1.09992        1.51612
C         -2.29107        1.98299        0.30417
O         -3.58992        2.50180        0.42573
H          1.60101       -0.75383        0.67106
H          1.40552       -0.49784       -1.08503
H          1.76462        0.92398       -0.06595
H         -0.06805        0.09592        2.17731
H          0.77455        2.75897        1.68558
H         -1.38898        4.08709        0.89985
H         -1.07221        2.38155        3.25203
H         -2.64441        0.33356        1.84941
H         -2.10458        1.57229       -0.71300
H         -4.20346        1.72584        0.34849
