19
	Energy:     173.0175176
C         -0.24146       -1.80484        3.79865
C         -1.45650       -1.43091        3.00864
C         -2.70388       -2.00990        3.13108
O         -3.54195       -1.42638        2.30332
C         -2.90618       -0.48558        1.64044
C         -1.58471       -0.44693        2.04225
C         -0.54620        0.51058        1.52245
C          0.57601       -0.19951        0.76107
O          1.47443        0.74048        0.23799
H         -0.48499       -2.61123        4.52231
H          0.55740       -2.18017        3.13133
H          0.12467       -0.92051        4.36049
H         -2.97181       -2.81533        3.80226
H         -3.36653        0.15226        0.89733
H         -1.03246        1.22154        0.81896
H         -0.12928        1.09332        2.37141
H          1.12257       -0.92247        1.39965
H          0.14188       -0.77344       -0.08541
H          2.04382        1.04149        0.99376
