19
	Energy:    1689.3184319
C          0.37360        0.77809       -0.06257
C          1.07517       -0.57255        0.05614
C          2.25595       -0.52388        0.97992
C          3.07138       -1.73515        0.56377
C          3.99739       -1.60965       -0.64273
C          2.57704       -1.98992       -0.89255
C          2.11878       -3.31009       -0.32922
O          2.57018       -2.99875        0.96159
O          1.60306       -0.98720       -1.17362
H         -0.02066        1.09125        0.92758
H          1.07674        1.55316       -0.43595
H         -0.47488        0.69677       -0.77428
H          0.33604       -1.32931        0.40653
H          2.87225        0.37802        0.76471
H          1.96793       -0.51100        2.05257
H          4.26755       -0.57686       -0.94882
H          4.71957       -2.44857       -0.73219
H          1.01891       -3.45831       -0.38414
H          2.70988       -4.15719       -0.74104
