19
	Energy:    1805.3890417
C         -0.13533        0.03413       -0.09162
C          1.37037        0.21388        0.09068
C          2.17478       -0.77970       -0.74735
O          3.45250       -0.29837       -1.12926
C          4.26447       -0.13969        0.01968
C          5.13825       -1.34610        0.27388
O          4.29839       -1.80019        1.30927
C          3.52376       -0.62565        1.22649
C          2.12332       -0.90804        0.77103
H         -0.66159        0.47676        0.77920
H         -0.45843        0.56441       -1.01152
H         -0.42619       -1.03583       -0.17641
H          1.80539        1.23507        0.15632
H          1.92649       -1.81151       -1.07565
H          4.72727        0.86500        0.12357
H          5.17383       -2.05680       -0.58089
H          6.12758       -1.06751        0.70072
H          3.64281       -0.00446        2.14186
H          1.41932       -1.56240        1.32931
