19
	Energy:    3246.8433729
C          0.16360        0.02255       -0.21667
C          1.25517       -0.20388        0.83590
O          2.55890        0.07348        0.31680
C          2.74585        1.06946        1.30317
C          3.74302        0.48618        2.31586
C          4.08125        1.75464        1.59419
C          1.42440        0.84662        1.92108
C          0.52861        1.53178        2.89255
O          0.66373        1.99999        1.59111
H          0.25270       -0.74919       -1.00949
H         -0.83693       -0.06389        0.25662
H          0.26207        1.02182       -0.69163
H          1.21188       -1.22262        1.28048
H          3.68361        0.77218        3.38882
H          4.49454       -0.25877        1.97661
H          3.78759        2.72789        2.04140
H          4.60574        1.73305        0.61545
H         -0.43441        1.01057        3.07050
H          1.05525        2.16813        3.63315
