19
	Energy:    1850.1383590
C         -0.73558        0.10811        2.79939
C          0.06777        1.41336        2.78718
C         -0.29464        2.55385        1.82894
O         -1.11983        2.16693        0.74416
C         -0.56163        1.16545       -0.10203
C          0.68569        1.57734       -0.85711
O          1.47861        0.62079       -0.18617
C          0.36208        0.13273        0.52330
C          0.58720        0.21811        2.03597
H         -0.70793       -0.23288        3.85601
H         -1.71548        0.34473        2.33451
H          0.75130        1.62364        3.63787
H         -0.85556        3.30551        2.42149
H          0.62243        3.07048        1.47876
H         -1.32187        0.69022       -0.75931
H          0.62298        1.32810       -1.93946
H          1.04115        2.60784       -0.64954
H          0.12436       -0.90066        0.18380
H          1.32166       -0.46103        2.51880
