19
	Energy:    1464.2943650
C          2.59942        2.51382        0.66340
C          3.12230        1.12211        1.06179
O          4.52788        1.10335        0.99904
C          2.59083        0.01224        0.12782
C          1.11914       -0.04884        0.14308
C         -0.08696       -0.08807        0.15185
C          3.12307       -1.34553        0.60183
C          4.41411       -1.80638        0.04452
O          3.16956       -2.30376       -0.41960
H          2.99565        3.28075        1.36306
H          2.92346        2.76754       -0.36723
H          1.49144        2.55511        0.71883
H          2.79283        0.89977        2.10397
H          4.87174        1.83788        1.56793
H          2.92424        0.23038       -0.91340
H         -1.14424       -0.11531        0.16569
H          2.82269       -1.77519        1.57927
H          4.89091       -1.23162       -0.77708
H          4.93873       -2.61189        0.60067
