19
	Energy:    1520.1168657
C          0.02388       -0.01008       -0.12090
C          1.53056        0.10676        0.08934
C          2.22740       -0.89115        0.91844
C          3.14583       -0.06002        1.78954
O          3.12840        1.28589        1.34912
C          2.29401        1.37530        0.20759
C          3.15043        1.27039       -1.03174
O          3.59708       -0.06426       -1.04927
C          2.48925       -0.83681       -0.60868
H         -0.50480        0.46913        0.72906
H         -0.25844        0.50657       -1.06163
H         -0.28933       -1.07409       -0.18520
H          1.90423       -1.92629        1.15578
H          2.76390       -0.09440        2.83139
H          4.17767       -0.46862        1.75209
H          1.66970        2.29270        0.25454
H          2.55343        1.46661       -1.95289
H          3.99777        1.98734       -0.99158
H          1.90969       -1.39526       -1.37507
