19
	Energy:     204.5081877
C         -0.19057        0.84723       -0.80006
O          0.35769       -0.09443        0.11814
C          1.69420        0.27353        0.13444
C          2.49033       -0.05397        1.39254
C          3.94563        0.43056        1.16508
C          4.04819        1.75326        0.40678
C          2.97392        2.36106       -0.14230
C          1.60674        1.76162        0.03386
O          0.72044        1.92088       -1.02038
H         -0.39153        0.33627       -1.76605
H         -1.13642        1.25454       -0.38271
H          2.19348       -0.19041       -0.75270
H          2.03580        0.48620        2.25331
H          2.48774       -1.13908        1.63023
H          4.45819        0.48781        2.14848
H          4.48283       -0.31340        0.53832
H          5.02991        2.19440        0.26566
H          3.09130        3.29909       -0.67570
H          1.14916        2.22699        0.94088
