19
	Energy:     832.8176900
C          0.37075        0.91198       -1.20364
O         -0.12022       -0.21916       -0.48645
C          0.79873        0.04462        0.55834
C          0.40919        0.31752        2.00952
C          0.68515        1.83758        2.12344
C          2.15187        2.17751        1.72477
O          2.25701        1.87497        0.33402
C          0.94353        1.46166        0.06738
C         -0.00366        2.30903        0.90077
H          1.14937        0.57955       -1.92955
H         -0.42759        1.55033       -1.64039
H          1.73390       -0.55191        0.41944
H         -0.66737        0.08989        2.17872
H          1.02975       -0.26375        2.72453
H          0.36226        2.25903        3.09909
H          2.33176        3.26746        1.85883
H          2.87958        1.59962        2.33383
H          0.09970        3.39774        0.69013
H         -1.08165        2.02143        0.86267
