19
	Energy:    1987.6182639
C          0.09721        0.17606       -0.10555
C          1.61566        0.20258        0.05765
C          2.18988       -0.92327        0.89419
C          2.35766       -0.89665       -0.67394
C          3.88723       -1.07681       -0.65218
O          4.01078       -2.11760        0.27352
C          3.69049       -1.11088        1.19040
C          4.43137       -0.08852        0.35939
O          5.81592       -0.24760        0.52724
H         -0.37155        0.68927        0.75962
H         -0.17931        0.71690       -1.03436
H         -0.30522       -0.85855       -0.16462
H          2.09306        1.19756        0.12180
H          1.54039       -1.79330        1.14225
H          1.77927       -1.75585       -1.08328
H          4.40873       -1.19230       -1.62650
H          3.99431       -1.26367        2.24821
H          4.16274        0.98655        0.37846
H          6.23265        0.05918       -0.31962
