19
	Energy:     909.5920018
C         -0.66441       -2.42117       -0.33605
C         -0.98495       -0.98506        0.05986
C         -1.64755        0.01449       -0.94212
C         -0.98672        1.11766       -0.03068
C         -1.78702        0.89560        1.26728
O         -3.08431        1.41167        1.12639
C         -1.77976       -0.68470        1.33328
C         -0.04793        0.06995        0.17205
O          1.15845        0.06261       -0.02766
H         -0.07523       -2.91115        0.46682
H         -1.61308       -2.98141       -0.47888
H         -0.08545       -2.44582       -1.28255
H         -1.16718       -0.01754       -1.95692
H         -2.75632        0.00165       -1.05020
H         -0.76969        2.13918       -0.40820
H         -1.26808        1.36373        2.13651
H         -3.56443        1.19063        1.96568
H         -1.23708       -1.05382        2.23311
H         -2.79838       -1.12698        1.28225
