19
	Energy:     395.8473524
C         -1.11763        1.18940       -2.72215
O         -1.57141        1.25998       -1.38573
C         -0.37914        1.21411       -0.61939
C          0.16689       -0.18789       -0.45965
C          1.57477        0.19255       -0.00215
O          1.98027        1.21388       -0.89061
C          0.77169        1.62857       -1.50563
C          0.32847        0.70527       -2.61933
C          0.28846       -0.66369       -1.91790
H         -1.73789        0.48689       -3.31972
H         -1.16914        2.20022       -3.18701
H         -0.45315        1.79896        0.32559
H         -0.33631       -0.91293        0.21456
H          1.56414        0.58721        1.03931
H          2.26457       -0.67765       -0.04978
H          0.77198        2.71139       -1.76646
H          0.86389        0.70193       -3.59236
H         -0.57772       -1.26093       -2.28052
H          1.20812       -1.27595       -2.05147
