19
	Energy:    1707.0061660
C          1.34841       -0.08168       -0.22247
O         -0.04440        0.03316       -0.04634
C         -0.30290        0.65539        1.19299
C         -0.16206       -0.30055        2.42350
C         -0.95276       -1.59555        2.42759
C         -1.73759       -0.31480        2.58154
C         -2.19195        0.16749        3.96771
C         -1.73108        0.62073        1.46653
O         -2.65945        1.15433        0.88097
H          1.80439       -0.73773        0.55163
H          1.53614       -0.56269       -1.20437
H          1.83695        0.91757       -0.25088
H          0.13692        1.67268        1.30447
H          0.20716        0.16256        3.36582
H         -1.01812       -2.06918        1.42484
H         -0.80413       -2.20057        3.34611
H         -1.96470       -0.58889        4.74858
H         -1.70833        1.13045        4.23984
H         -3.28987        0.32742        3.94838
