19
	Energy:     152.7871094
C          0.16604       -1.02642       -0.59733
C          1.22040       -0.00663       -0.13169
C          2.20577       -0.66765        0.84881
C          1.93242        0.62643       -1.32311
O          1.24805        1.82558       -1.54228
C          0.83742        2.20064       -0.25286
O          0.57273        1.05973        0.52155
C          1.87851        3.02128        0.40283
C          2.73460        3.68854        0.92675
H         -0.45208       -1.35612        0.26523
H         -0.50296       -0.57415       -1.35707
H          0.64410       -1.93005       -1.03994
H          1.65908       -1.08726        1.72181
H          2.78375       -1.48519        0.37074
H          2.92056        0.09153        1.23615
H          2.98834        0.88853       -1.08709
H          1.92964       -0.00674       -2.23919
H         -0.09390        2.81132       -0.34344
H          3.47286        4.30358        1.37251
