19
	Energy:    1450.6693369
C          4.69070        0.28220       -0.00263
C          3.17941        0.10800       -0.06515
O          2.30658        0.87271        0.72289
C          1.52889        0.00094       -0.05353
C          0.00879       -0.02151        0.03032
C          2.43558       -1.17569        0.17362
C          2.47642       -1.94515       -1.11533
O          2.40428       -0.93911       -2.09380
C          2.33346        0.23690       -1.31660
H          5.04683        0.07396        1.02749
H          5.18080       -0.42021       -0.70848
H          4.95670        1.32338       -0.27924
H         -0.30298       -0.27307        1.06515
H         -0.39334        0.97634       -0.24158
H         -0.39631       -0.78199       -0.66922
H          2.47350       -1.65116        1.17801
H          3.43178       -2.50560       -1.20202
H          1.60034       -2.62438       -1.18912
H          2.26615        1.21851       -1.83381
