19
	Energy:    1374.6814416
C          1.52782        0.41610        0.41114
C          0.08511        0.07168        0.17436
C         -0.46589       -1.09589        0.39369
C         -1.90960       -1.04863        0.01964
O         -2.19381        0.25124       -0.47273
C         -0.97780        0.95169       -0.35284
C         -0.85756        2.38959       -0.82824
C         -1.16280        2.11206        0.63467
O         -2.48128        2.51006        0.87954
H          1.60532        1.24277        1.14641
H          2.08509       -0.46028        0.80537
H          1.99349        0.73329       -0.54479
H          0.05086       -1.96316        0.78443
H         -2.10626       -1.79891       -0.77487
H         -2.53198       -1.25988        0.91465
H          0.19662        2.50110       -1.15891
H         -1.68810        2.52856       -1.55345
H         -0.36968        2.66940        1.17727
H         -2.80433        1.90296        1.59350
