19
	Energy:    2798.8085243
C         -0.97349       -1.18275       -0.21385
C         -0.32107        0.18981       -0.27764
C          1.03299        0.54073        0.31365
C          0.39403        1.67196       -0.50285
O          0.03343        0.75391       -1.50908
C         -0.97524        1.49019        0.17142
C         -1.15362        1.80613        1.67455
C         -2.55547        1.81878        2.15635
O         -1.85138        3.00733        1.85671
H         -1.17558       -1.44956        0.84426
H         -1.92966       -1.16852       -0.77702
H         -0.29618       -1.94009       -0.66028
H          1.14710        0.63821        1.41050
H          1.89927        0.04289       -0.17900
H          0.87043        2.64316       -0.76053
H         -1.84226        1.80248       -0.45869
H         -0.37794        1.68199        2.45559
H         -3.38760        1.72763        1.42675
H         -2.72912        1.79690        3.25220
