19
	Energy:    1823.3469469
O         -1.96362        3.72726        2.37215
C         -2.11167        2.43207        1.85444
C         -2.86294        2.51440        0.52443
C         -2.57349        1.44965       -0.52419
C         -2.16713        0.13361        0.14570
C         -0.83236        0.46903        0.84189
O          0.26522        0.15316        0.01344
C         -0.87302        1.99419        1.07611
C         -1.50867        2.48472       -0.21394
H         -1.29206        3.65793        3.09944
H         -2.49841        1.71800        2.61545
H         -3.46693        3.40189        0.22466
H         -3.32552        1.51187       -1.33798
H         -2.95976       -0.11230        0.88692
H         -2.05482       -0.72530       -0.54973
H         -0.71154       -0.12026        1.77580
H          0.10300        0.51360       -0.89741
H          0.09634        2.40718        1.43027
H         -1.42573        3.56561       -0.47201
