19
	Energy:    2183.0505487
C          0.74830       -0.39540       -0.71590
C          0.87453        0.20025        0.69154
C          1.77993        1.43068        0.72165
C          2.96411        0.57776        1.08929
C          2.34780        1.50377        2.12531
O          3.34797        2.39367        2.51857
C          1.96807        0.26111        2.93067
C          1.96216       -0.44292        1.56555
O          2.18889       -1.82528        1.51026
H          0.26953       -1.39480       -0.65183
H          0.11038        0.26463       -1.34042
H          1.73551       -0.50861       -1.21220
H         -0.11713        0.30207        1.18567
H          1.78289        2.39562        0.17207
H          3.45584        0.54803        0.09154
H          2.86320        3.21561        2.78484
H          2.81503       -0.08315        3.56903
H          0.98419        0.27343        3.44694
H          3.16972       -1.94941        1.43422
