19
	Energy:      83.7001762
C          4.60869        0.00100       -1.49751
C          3.07372       -0.08477       -1.40168
C          2.60307       -1.47598       -1.86049
O          3.20558       -2.44788       -1.04287
C          2.66453        0.16567        0.07208
C          1.20357        0.22703        0.27139
C          0.01062        0.27616        0.40566
C          2.50714        1.01138       -2.26756
O          1.89539        0.79657       -3.30733
H          5.08854       -0.74875       -0.84280
H          4.95356       -0.18076       -2.53273
H          4.97171        1.00355       -1.19251
H          1.49385       -1.52223       -1.79329
H          2.87654       -1.62042       -2.92658
H          2.82573       -3.32826       -1.28412
H          3.07777       -0.63490        0.70310
H          3.10922        1.11893        0.42102
H         -1.03218        0.37801        0.52132
H          2.68252        2.02178       -1.92794
