19
	Energy:    1582.5077743
C          0.16155        0.41004        0.23317
C          1.04098       -0.81729       -0.00006
O          2.32962       -0.64046        0.54858
C          2.25224       -0.74352       -0.85884
C          2.89798       -2.02851       -1.37640
O          4.29464       -1.84970       -1.46141
C          4.63599       -0.84494       -2.41132
C          3.84007        0.44285       -2.27675
C          2.73936        0.51201       -1.51823
H         -0.26760        0.35152        1.25492
H          0.71344        1.36744        0.16223
H         -0.67056        0.40856       -0.50071
H          0.63767       -1.82895        0.21730
H          2.68233       -2.88358       -0.70027
H          2.48238       -2.29293       -2.37480
H          5.69434       -0.57870       -2.20974
H          4.58160       -1.23647       -3.44971
H          4.17531        1.32615       -2.81174
H          2.21756        1.45683       -1.42892
