19
	Energy:    2013.5212887
O          0.30418       -1.17692       -0.07628
C          0.47616        0.01278        0.13604
C         -0.30707        0.71555        1.20068
C         -1.13735        1.83375        0.57462
O         -0.45794        3.02521        0.45168
C         -1.46339        2.97869        1.47645
C         -2.35001        4.19099        1.27762
C         -2.04570        4.51014        2.75014
C         -0.83467        3.56427        2.72647
H          1.20502        0.56187       -0.45155
H         -0.99449        0.00223        1.70444
H          0.40363        1.11261        1.95779
H         -1.87855        1.63937       -0.22887
H         -1.86014        4.94234        0.61595
H         -3.42306        4.01252        1.05381
H         -1.89526        5.56868        3.05066
H         -2.83779        4.02317        3.36800
H          0.08974        4.13662        2.48126
H         -0.74354        2.90467        3.61531
