19
	Energy:    1004.5799898
O          0.31254        3.31371        0.52412
C         -0.02389        1.96694        0.71387
C          0.11549        1.58779        2.19247
C          1.54927        1.44624        2.74636
C          1.30974       -0.05108        2.95271
C         -0.15821        0.10902        2.57421
C         -1.06122        0.69594        3.58086
O         -1.80249        0.15183        4.38296
C         -0.95217        2.10592        3.20548
H         -0.46756        3.84724        0.82830
H         -1.05950        1.77073        0.35400
H          0.65592        1.34153        0.09739
H          2.36548        1.63519        2.01473
H          1.65976        1.98173        3.71433
H          1.81038       -0.62126        2.13914
H          1.50260       -0.45073        3.97153
H         -0.64914       -0.56312        1.83766
H         -1.91701        2.42109        2.75354
H         -0.56756        2.76752        4.01038
