19
	Energy:      73.1429020
C          3.84964        2.42986       -4.32690
C          3.69724        1.13539       -3.52207
C          2.99750        1.37233       -2.17119
C          2.82159        0.08288       -1.36689
O          1.93767       -0.74506       -2.09684
C          2.31368        0.37596        0.03935
O          2.81555        1.25807        0.72622
C          1.28817       -0.48397        0.57235
C          0.44779       -1.21670        1.03109
H          4.45071        3.17626       -3.77772
H          4.35640        2.23696       -5.29472
H          2.86681        2.88149       -4.54969
H          3.11503        0.40301       -4.11020
H          4.69477        0.69232       -3.34958
H          3.59579        2.07305       -1.56269
H          2.00803        1.82415       -2.33833
H          3.80796       -0.40574       -1.25505
H          1.74927       -1.56649       -1.55290
H         -0.29129       -1.86065        1.43517
