19
	Energy:    1547.7577629
O         -2.13435       -1.98109       -0.87256
C         -1.08215       -1.51061       -0.46422
C         -0.96518       -1.20536        1.01238
C         -0.72067        0.28604        1.26606
C          0.74469        0.65126        1.02255
O          0.91848        1.84273        0.28421
C          1.28473        0.63564       -0.35117
C          0.37463        0.25432       -1.52005
C          0.01135       -1.23365       -1.47150
H         -1.93462       -1.47476        1.48771
H         -0.17272       -1.81906        1.49274
H         -1.43173        0.89615        0.66620
H         -0.91459        0.51273        2.33607
H          1.51806        0.46539        1.79830
H          2.37782        0.44054       -0.38875
H         -0.54980        0.87059       -1.57711
H          0.96304        0.45842       -2.43989
H         -0.37689       -1.51989       -2.47425
H          0.91403       -1.85048       -1.27134
