19
	Energy:     903.2666617
C         -4.02283        1.01132        1.18531
C         -2.61807        0.41465        1.25917
O         -1.62887        1.42502        1.27463
C         -1.15859        0.99817        0.02216
C         -1.15737        2.03761       -1.09792
C         -2.14452       -0.18838       -0.07212
C         -0.92758       -1.19233       -0.03665
C         -0.10056        0.00150        0.06279
O          1.10925        0.12641        0.16433
H         -4.24800        1.54806        2.13053
H         -4.10634        1.72626        0.33914
H         -4.76708        0.19907        1.04740
H         -2.49743       -0.29367        2.10872
H         -0.96062        1.55068       -2.07677
H         -2.14078        2.55055       -1.14227
H         -0.36606        2.79099       -0.90288
H         -2.75244       -0.08416       -0.99902
H         -0.87158       -1.82439        0.87501
H         -0.73433       -1.71928       -0.99487
