19
	Energy:    1842.4644662
O         -0.51104       -1.48162       -2.26993
C         -0.71593       -0.69132       -1.13278
C         -0.36292        0.76168       -1.45609
C         -1.38499        1.45700       -2.44029
C         -1.67804        2.33885       -1.29676
O         -2.41693        3.30738       -1.21051
C         -0.79021        1.73310       -0.32831
C          0.32890        2.75485       -0.09104
C         -0.32708        2.07245        1.08241
H         -0.72385       -2.41247       -1.99983
H         -1.77948       -0.76266       -0.81017
H         -0.05106       -1.03781       -0.31048
H          0.69276        0.88145       -1.79291
H         -0.91397        2.04228       -3.25834
H         -2.29492        0.87662       -2.70622
H          1.38775        2.42021       -0.05062
H          0.09284        3.83280        0.04614
H          0.06982        1.10792        1.46335
H         -1.22605        2.52346        1.55365
