19
	Energy:    1551.9955630
C          0.58603        0.88060       -0.19503
C          1.06569       -0.56487       -0.06583
C          1.91252       -1.02773       -1.25948
O          3.28084       -0.68107       -1.16067
C          2.90917       -1.97960       -0.73987
C          2.68181       -2.09902        0.77155
C          1.97821       -0.79689        1.14298
C          1.26034       -0.84942        2.46100
O          1.55022       -0.07038        3.35469
H         -0.01767        1.16190        0.69351
H          1.45042        1.57356       -0.27856
H         -0.04677        0.98770       -1.10135
H          0.18764       -1.24822       -0.01309
H          1.57408       -1.09271       -2.31444
H          3.33503       -2.76480       -1.39818
H          1.99639       -2.96317        0.92030
H          3.61102       -2.26132        1.35787
H          2.75260        0.00670        1.16120
H          0.47703       -1.58284        2.62356
