19
	Energy:    1257.2734788
C         -0.54173       -0.35285        1.47556
C         -0.31061        0.52220        0.28051
O         -1.26550        1.03812       -0.28051
C          1.08960        0.77490       -0.21633
C          1.28387        0.27049       -1.62279
O          2.09589       -0.62216       -1.82431
C          0.49557        0.86901       -2.77062
C          1.48497        1.51581       -3.73519
C          0.66367        0.32081       -4.18418
H         -0.01742        0.07245        2.35668
H         -1.62611       -0.42700        1.70576
H         -0.14926       -1.37118        1.27218
H          1.31019        1.86277       -0.17906
H          1.80960        0.25793        0.45617
H         -0.22448        1.68491       -2.54785
H          1.14138        2.34267       -4.39288
H          2.53374        1.15814       -3.82535
H         -0.32588        0.48431       -4.66178
H          1.06188       -0.71089       -4.08381
