19
	Energy:    1396.7612977
C          1.19786        0.69547       -1.20457
C         -0.02629        0.17651       -0.51256
C         -1.10539        0.90818       -0.25678
C         -2.17410        0.14859        0.45520
O         -3.43679        0.04757       -0.13669
C         -1.88539       -0.47640        1.82117
C         -1.56809       -1.25354        0.55954
O         -2.37889       -2.38971        0.43862
C         -0.17006       -1.23245       -0.04972
H          2.07641        0.57992       -0.53634
H          1.36988        0.11633       -2.13557
H          1.08747        1.76935       -1.46707
H         -1.19724        1.95417       -0.51943
H         -3.99252        0.72373        0.32828
H         -1.06255        0.08650        2.31180
H         -2.86164       -0.64631        2.32313
H         -2.69813       -2.39586       -0.50018
H          0.60163       -1.52362        0.69377
H         -0.12226       -1.89727       -0.93822
