19
	Energy:    1627.8826407
C          0.52279        4.49446        1.90987
C         -0.57579        4.02087        0.95246
C         -2.05417        4.26659        1.19182
C         -1.42134        3.02298        1.74516
C         -1.01443        2.05680        0.67238
C         -0.18342        0.88850        1.21034
C          0.35757        0.06988        0.07761
O          0.06162       -1.10931       -0.03106
O         -0.22637        3.02076        0.01355
H          0.12029        5.23297        2.63540
H          0.98292        3.64941        2.46688
H          1.32058        4.98914        1.31850
H         -2.25255        5.06052        1.94250
H         -2.76410        4.06584        0.36053
H         -2.07514        2.70451        2.58466
H         -1.87912        1.73020        0.05063
H          0.66873        1.26403        1.81638
H         -0.82729        0.25648        1.86057
H          1.02008        0.52485       -0.65179
