19
	Energy:    1622.2156300
C          1.38158        0.70277       -0.38931
C          0.01181        0.17068       -0.09404
C         -0.27177       -1.12227        0.04455
C         -1.72928       -1.28067        0.24120
C         -2.47351       -2.57551        0.26233
O         -1.89584       -2.06589        1.41474
C         -2.29475        0.09695        0.55757
C         -1.22359        1.03371       -0.02434
O         -1.55777        1.48876       -1.31274
H          1.67801        1.41780        0.40591
H          2.13082       -0.11653       -0.43091
H          1.37236        1.22847       -1.36667
H          0.44753       -1.92762       -0.03901
H         -3.57991       -2.49673        0.29495
H         -1.91868       -3.46079       -0.11204
H         -3.33257        0.30299        0.21951
H         -2.25626        0.23004        1.66439
H         -1.10976        1.91352        0.64544
H         -1.77271        0.69803       -1.87483
