19
	Energy:    4129.6991532
C          0.45225       -0.88396        0.54624
C          1.72134       -0.74036       -0.28076
C          0.56462        0.23017       -0.48541
C         -0.47527       -0.00172       -1.59420
C         -0.05124        0.44915       -2.94232
O         -0.13641       -0.92397       -2.59149
C         -1.97240        0.14249       -1.29026
C         -2.68054       -1.09876       -0.89241
O         -2.78824       -0.55701       -2.19260
H          0.07616       -1.89235        0.26946
H          0.78513       -0.69584        1.58902
H          2.55388       -0.10853        0.09570
H          1.84332       -1.32390       -1.21619
H          0.51496        1.18142        0.08657
H         -0.81246        0.61447       -3.73360
H          1.02261        0.65074       -3.14053
H         -2.42013        1.11339       -0.99263
H         -2.16649       -2.07832       -0.98660
H         -3.67342       -0.99997       -0.40716
