19
	Energy:    2655.4367955
C          0.07484       -0.20718       -0.03882
C          1.57117        0.08466        0.13130
C          2.31114        0.88943       -0.94348
C          2.35347       -0.63107       -0.94542
O          3.58902       -1.06942       -0.45836
C          3.34733       -1.35911        0.89421
C          3.72255       -0.22529        1.81831
C          2.26175       -0.39816        1.41316
O          1.46090       -1.04671        2.36282
H         -0.49313        0.36474        0.72419
H         -0.29807        0.08975       -1.04255
H         -0.12644       -1.29012        0.10605
H          1.54519        1.40728       -1.55838
H          3.10140        1.47769       -0.43602
H          2.02232       -0.95376       -1.95561
H          3.04943       -2.39902        1.15602
H          3.92922       -0.54315        2.86176
H          4.21053        0.65343        1.35035
H          1.23153       -0.34852        3.02796
