19
	Energy:      25.9008301
C          0.01153       -4.89088       -0.27288
C         -0.75206       -3.57937       -0.07026
C          0.20447       -2.39735       -0.15327
O         -0.51058       -1.23219       -0.08448
C          0.08094       -0.02343       -0.07777
C         -0.79717        1.16988        0.00289
O          1.30094        0.08476       -0.11651
C         -1.45625       -3.58340        1.22567
C         -2.03447       -3.59002        2.28458
H          0.79589       -5.02884        0.50102
H         -0.68222       -5.75489       -0.23153
H          0.50123       -4.89323       -1.27095
H         -1.50412       -3.47624       -0.87836
H          0.93897       -2.42022        0.68058
H          0.75818       -2.42079       -1.11632
H         -1.39565        1.10758        0.93430
H         -0.20380        2.10439       -0.00404
H         -1.49652        1.15602       -0.85685
H         -2.49837       -3.60361        3.23633
