19
	Energy:    2210.5368390
C          1.51834       -0.12448        1.14260
C          1.00736        0.24897       -0.24582
C          1.82304       -0.45651       -1.34531
C          1.50706       -1.93920       -1.50064
C          1.76197       -2.28338       -2.94847
O          2.15934       -1.05820       -3.55517
C          1.21439       -0.35588       -2.74470
C          0.48602       -1.63369       -2.56034
O         -0.70741       -1.86988       -1.87253
H          1.40814       -1.21593        1.31560
H          2.58812        0.15560        1.24823
H          0.93106        0.41741        1.91356
H         -0.07208       -0.00294       -0.31022
H          1.10979        1.34723       -0.38004
H          2.90162       -0.18330       -1.30391
H          1.51928       -2.81305       -0.81496
H          1.39238       -3.12479       -3.57192
H          0.78799        0.56252       -3.20080
H         -1.32575       -2.22533       -2.55985
