19
	Energy:    1486.0114756
C          0.38669        1.29292       -0.45300
C          1.70734        0.61475       -0.81309
C          2.71980        1.33658       -1.67877
O          4.01006        0.83723       -1.39371
C          3.91314       -0.02223       -0.27036
C          3.92852       -1.44985       -0.75641
O          2.71086       -1.59843       -1.43415
C          1.77393       -0.87762       -0.65238
C          2.53379        0.08716        0.30750
H         -0.19462        0.69541        0.28185
H          0.58565        2.29241       -0.01237
H         -0.22274        1.41952       -1.37177
H          2.46904        1.19340       -2.75060
H          2.71007        2.42000       -1.43113
H          4.71737        0.21181        0.45865
H          4.79424       -1.63026       -1.42849
H          3.97033       -2.17045        0.09326
H          0.93097       -1.41555       -0.16373
H          2.32641       -0.42753        1.27203
