19
	Energy:    1330.7730969
C          3.92668        1.59517        0.22346
C          2.53395        1.37044       -0.27870
O          1.87626        2.32573       -0.66432
C          1.99525       -0.04494       -0.33909
C          0.58884       -0.30857       -0.90457
C          0.80279       -0.28749        0.60617
C         -0.05133        0.82083        1.24623
C          0.57346       -1.67543        1.16444
O          1.25566       -2.62826        0.81856
H          4.00694        1.23482        1.27037
H          4.64639        1.03711       -0.41135
H          4.18747        2.67477        0.19538
H          2.71591       -0.85910       -0.11127
H          0.26875        0.61192       -1.43683
H          0.70974       -1.24634       -1.48842
H          0.27089        0.96457        2.29845
H          0.00963        1.79599        0.72849
H         -1.11972        0.51586        1.24494
H         -0.21203       -1.83303        1.89663
