19
	Energy:     174.9828081
C          1.44560       -0.11019        0.45701
O          0.08461       -0.01425        0.09830
C         -0.58743        0.85615        0.98627
O         -0.23527        2.19096        0.70670
C         -0.13586        2.94482        1.89580
C         -1.44181        3.13715        2.64304
C         -2.63116        2.53841        2.41819
C         -2.95151        1.47543        1.42879
C         -2.05878        0.72779        0.76530
H          1.56842       -0.56321        1.46560
H          1.94870       -0.78618       -0.26435
H          1.95662        0.87539        0.38745
H         -0.39497        0.54258        2.04570
H          0.65733        2.54909        2.56884
H          0.19999        3.95681        1.58788
H         -1.40954        3.86961        3.44475
H         -3.46557        2.86925        3.02971
H         -4.00388        1.27437        1.25154
H         -2.42398       -0.01214        0.05782
