19
	Energy:    1588.0697292
C          1.13995       -0.34918        1.13592
C          1.27151        0.25148       -0.25879
C          1.88170       -0.76581       -1.22622
C          1.56704       -0.54707       -2.68767
O          2.11501       -1.45936       -3.61350
C          1.55106       -2.55329       -2.94368
C          0.56597       -3.30476       -3.78931
O         -0.09048       -4.21300       -3.30609
C          0.90440       -1.70112       -1.88358
H          0.46542       -1.23159        1.11259
H          2.13586       -0.66096        1.51706
H          0.71411        0.40685        1.82875
H          0.26827        0.58733       -0.60380
H          1.93722        1.13934       -0.21053
H          2.89081       -1.18306       -1.01578
H          0.73362        0.09009       -3.06932
H          2.35275       -3.20325       -2.52701
H          0.43630       -3.04793       -4.83570
H         -0.17773       -1.45277       -1.99167
