19
	Energy:    1769.9861476
C         -2.48426        2.86608        1.61790
C         -1.02983        3.25185        1.47631
C         -0.83461        1.75626        1.34829
O         -2.21704        1.50335        1.38790
C         -0.22435        1.32770       -0.00285
C          1.29761        1.24351       -0.05920
C          1.20846        0.28179       -1.24010
C          0.28903       -0.10614       -0.08599
O          1.31218        0.16298        0.83909
H         -2.86325        3.00425        2.65519
H         -3.12529        3.29467        0.81632
H         -0.86664        3.79719        0.52024
H         -0.59464        3.68092        2.40461
H         -0.35502        1.32441        2.25691
H         -0.76444        1.74521       -0.88849
H          2.00863        2.09318        0.03352
H          0.74754        0.64538       -2.18966
H          2.09530       -0.37812       -1.37645
H         -0.32526       -1.03098       -0.02874
