19
	Energy:    1370.1265337
C          5.44778       -2.47046       -0.82636
C          4.54276       -1.24807       -1.02215
C          3.25026       -1.45934       -1.82517
O          2.96073       -0.33887       -2.61714
C          3.20345       -1.26172       -0.29469
C          2.67500        0.09010        0.22524
O          3.14060        0.34329        1.52528
C          1.20103        0.10186        0.16165
C         -0.00627        0.09450        0.14764
H          6.04601       -2.34016        0.10103
H          4.88849       -3.42641       -0.76022
H          6.16303       -2.53549       -1.67539
H          5.01135       -0.24941       -1.12979
H          3.05142       -2.47810       -2.21993
H          1.97166       -0.26433       -2.62438
H          2.91199       -2.19146        0.23778
H          3.03667        0.91416       -0.42246
H          2.74455       -0.32843        2.14079
H         -1.06587        0.08199        0.13258
