19
	Energy:    1764.6180368
O         -0.12494        0.39969       -0.58294
C         -0.95806        0.47307        0.54714
C         -2.26295       -0.21689        0.24330
C         -2.98721        0.82805       -0.57485
C         -2.67907        2.19823        0.08088
C         -2.61262        2.35624        1.59143
C         -1.35330        1.94512        0.83202
O         -0.68066        2.92197        0.06962
C         -1.83249        3.19768       -0.67839
H          0.78124        0.67451       -0.28466
H         -0.46016       -0.02444        1.41029
H         -2.17068       -1.21225       -0.24167
H         -2.81525       -0.36276        1.19642
H         -2.59489        0.82441       -1.61596
H         -4.07537        0.61121       -0.61584
H         -2.60946        3.41372        1.93150
H         -3.15174        1.58268        2.17339
H         -2.16458        4.24134       -0.48486
H         -1.71079        2.96235       -1.75796
