19
	Energy:     994.4304025
O         -0.90907        0.84317       -1.14074
C          0.26103        1.32678       -0.53968
C         -0.06712        2.00535        0.79495
C          1.15691        2.43274        1.60439
C          0.64399        1.63664        2.79744
C         -0.50201        1.03967        1.92013
C         -1.58111        1.59537        2.90455
C         -0.44994        2.19673        3.59899
O         -0.41566        2.85045        4.62883
H         -1.10143       -0.03763       -0.72497
H          0.99988        0.50202       -0.40784
H          0.72377        2.07038       -1.22174
H         -0.78802        2.84757        0.69106
H          2.07732        1.92612        1.23834
H          1.28015        3.52317        1.77895
H          1.31044        0.93898        3.34884
H         -0.33300       -0.05193        1.78869
H         -2.28110        2.34440        2.47616
H         -2.04606        0.82880        3.55937
