19
	Energy:    2190.5082828
C         -2.95233       -4.22396        3.74636
C         -2.37143       -3.25055        2.70681
C         -3.63238       -2.62632        2.11865
C         -2.41431       -1.78506        2.32260
C         -1.44669       -2.14364        1.18803
O         -0.11919       -2.06371        1.63991
C         -2.00263       -3.58822        1.28105
C         -3.46161       -3.42948        0.83263
O         -4.14278       -4.65306        0.89209
H         -3.89278       -4.73079        3.43579
H         -2.19939       -5.01521        3.94080
H         -3.13361       -3.68012        4.69734
H         -4.52688       -2.24476        2.65667
H         -2.16601       -1.19087        3.22707
H         -1.58688       -1.61122        0.22007
H          0.42171       -2.59626        1.00104
H         -1.37127       -4.40645        0.87431
H         -3.60977       -2.91566       -0.14426
H         -5.10915       -4.42789        0.90241
