19
	Energy:     738.7452107
O         -0.62873        1.39830        0.00158
C         -1.43816        1.13731        1.12461
C         -0.96653       -0.04441        1.98834
C         -2.26616       -0.86035        1.93290
C         -3.34875        0.18924        2.15061
C         -2.84013        0.62138        0.76847
C         -2.60190       -0.85917        0.44558
C         -2.31577       -2.15058        2.69985
O         -1.35573       -2.53234        3.35016
H         -0.38410        0.54227       -0.43239
H         -1.52788        2.06947        1.72682
H         -0.13212       -0.62500        1.53493
H         -0.70964        0.27355        3.02296
H         -4.37765       -0.24199        2.09703
H         -3.25193        0.89027        3.01144
H         -3.44465        1.28556        0.11512
H         -3.55958       -1.39016        0.22550
H         -1.81664       -1.15688       -0.28275
H         -3.21795       -2.75265        2.67610
