19
	Energy:    1864.3190450
O          0.21527       -0.43986        0.24273
C         -0.60478        0.60471        0.68246
C         -2.05901        0.19547        0.72508
O         -2.85299        0.96035        1.61322
C         -3.17559        2.15944        0.94817
C         -4.28108        2.03746       -0.11635
C         -3.35705        2.80173       -1.06068
C         -2.17645        2.44054       -0.15356
C         -1.57281        1.07386       -0.41942
H          0.31335       -1.04235        1.02421
H         -0.10977        1.48406        1.14915
H         -2.49634       -0.72064        0.27483
H         -3.30252        3.05602        1.59589
H         -4.35111        0.98705       -0.48097
H         -5.27787        2.47486        0.10336
H         -3.32588        2.51797       -2.13426
H         -3.55928        3.89053       -0.93007
H         -1.39466        3.21709       -0.00401
H         -1.02047        0.89563       -1.36736
