19
	Energy:    1075.8766167
O         -0.77114        1.97147        2.62755
C          0.01950        0.83898        2.37651
C         -0.70417       -0.11861        1.37369
C         -0.28890        0.23317       -0.09418
C         -0.40147        1.73425       -0.30006
C          1.01968        1.86338        0.28745
C          1.27127        0.41898       -0.11338
O          1.90872        0.11418        1.11419
C          1.34117        1.27274        1.68475
H         -0.34090        2.45611        3.37964
H          0.17743        0.29050        3.33308
H         -0.32918       -1.15325        1.53789
H         -1.80184       -0.13187        1.54470
H         -0.75961       -0.43149       -0.84930
H         -0.34183        1.97168       -1.38747
H         -1.25107        2.26721        0.17621
H          1.78010        2.57540       -0.10119
H          1.82651        0.38047       -1.07772
H          2.04324        1.89147        2.28381
