19
	Energy:     552.1240987
C          0.05381        1.29390       -0.73401
C         -0.07815       -0.10291       -0.16351
C          1.29644        0.20175        0.40329
C          1.36364        0.16820        1.93886
O          2.66790        0.49449        2.36210
C          3.58892       -0.52437        1.98903
C          3.45424       -0.98163        0.54767
C          2.40792       -0.61563       -0.20457
O          1.30325        1.50750       -0.11791
H          0.17254        1.29399       -1.84040
H         -0.71255        1.99609       -0.33780
H         -0.87745       -0.12729        0.60998
H         -0.10366       -0.88249       -0.95634
H          0.64125        0.89218        2.37295
H          1.07988       -0.83912        2.32362
H          4.60140       -0.08021        2.08499
H          3.53332       -1.38970        2.68401
H          4.22915       -1.60894        0.11818
H          2.36219       -0.91721       -1.24720
