19
	Energy:     628.5089364
C         -2.98143       -0.20693        1.24339
C         -2.10482       -0.02839       -0.00438
C         -0.88907       -1.01999       -0.02371
C         -0.08409        0.20651        0.02581
O          1.12712        0.35651        0.01328
C         -1.16555        1.20060       -0.01512
O         -1.21219        1.83371       -1.28632
C         -1.88536        0.93496       -2.14813
C         -2.87873        0.18169       -1.28949
H         -3.54945       -1.15813        1.16932
H         -2.35747       -0.23093        2.16230
H         -3.69969        0.63525        1.33530
H         -0.71358       -1.59955        0.90826
H         -0.72481       -1.56977       -0.97479
H         -1.23273        1.88973        0.85389
H         -2.40309        1.46492       -2.97541
H         -1.13599        0.23942       -2.58744
H         -3.70366        0.89800       -1.07361
H         -3.31065       -0.73414       -1.74549
