19
	Energy:    1517.9352352
C          2.24301       -0.53218       -0.83721
C          1.25539        0.60838       -0.77337
C          0.94180        1.51008        0.42871
C          1.91253        1.59432        1.62244
O          3.18360        1.07085        1.31600
C          3.22539       -0.33179        1.47394
C          2.22693       -1.07953        0.56905
O          0.91488       -0.90667        1.05348
C          0.29320        0.11762        0.28869
H          1.78475       -1.28856       -1.51294
H          3.25236       -0.27663       -1.22483
H          0.84214        1.05200       -1.70467
H          0.06689        2.19367        0.43650
H          2.06464        2.67343        1.83118
H          1.47853        1.17968        2.56155
H          4.24517       -0.64413        1.16259
H          3.11786       -0.63025        2.54037
H          2.49928       -2.15742        0.57621
H         -0.58208       -0.20471       -0.31586
