19
	Energy:    1470.5116718
O          0.91153        1.30014        3.61959
C         -0.30999        0.65021        3.82164
C         -0.50262       -0.65761        3.02288
C         -1.09263        0.64762        2.52292
C         -2.56785        0.53856        2.45244
C         -2.94477        0.55063        1.12498
C         -1.75393        0.63303        0.21672
C         -0.62749        1.10796        1.14366
O          0.63095        0.64162        0.73044
H          1.55475        0.82859        4.20808
H         -1.00251        1.10153        4.56407
H          0.52294       -0.96989        2.73162
H         -1.06981       -1.30145        3.72880
H         -3.24670        0.41329        3.28612
H         -3.96523        0.40805        0.79544
H         -1.58131       -0.39716       -0.16369
H         -1.87321        1.33996       -0.63191
H         -0.67264        2.22374        1.16211
H          1.29646        1.32054        1.01374
