19
	Energy:     305.1827440
C          1.33078        0.01788       -0.22302
O         -0.05912        0.21095       -0.05720
C         -0.43785        0.67683        1.23689
C         -0.03661        2.13701        1.47199
C         -1.36782        2.85031        1.65718
O         -2.31465        2.10371        0.93870
C         -1.97058        0.76939        1.22711
C          0.00630       -0.22958        2.32378
C          0.39193       -0.96164        3.20158
H          1.74318       -0.74871        0.46608
H          1.48040       -0.36640       -1.25457
H          1.89660        0.96649       -0.14513
H          0.67112        2.31679        2.31153
H          0.42277        2.52960        0.54035
H         -1.66088        2.87065        2.73236
H         -1.33887        3.90295        1.29812
H         -2.41459        0.49783        2.21360
H         -2.41052        0.08803        0.46584
H          0.73903       -1.61452        3.95911
