19
	Energy:    1722.1158089
C          1.36050       -0.00624       -0.06647
O         -0.01075       -0.05853        0.23808
C         -0.24021        0.82175        1.31270
C         -0.70356        2.23807        1.03276
C         -1.77297        1.21646        1.36384
C         -2.61811        0.62395        0.22229
C         -1.90617        0.59618        2.77989
C         -0.50819        0.22355        2.62004
O          0.24115       -0.36235        3.38431
H          1.97799       -0.35785        0.79064
H          1.55629       -0.69498       -0.91368
H          1.66362        1.01269       -0.39727
H         -0.47926        2.93959        1.86382
H         -0.58023        2.53199       -0.03101
H         -2.53073       -0.48322        0.19804
H         -3.68306        0.88154        0.39723
H         -2.31945        1.03665       -0.76483
H         -2.02399        1.33720        3.59852
H         -2.57593       -0.28787        2.84274
