19
	Energy:    1747.9009217
C         -0.52977       -1.13483       -1.53591
C          0.36326       -0.12815       -2.28694
C          0.21362       -0.05463       -3.81039
C          1.54420       -0.77073       -3.99401
O          1.42448       -2.02308       -4.62402
C          1.70244       -0.87875       -2.48531
C          1.67113        0.44412       -1.74658
C          1.85724        0.35773       -0.25166
O          2.08363       -0.70245        0.31232
H         -0.35296       -1.11140       -0.44241
H         -1.59025       -0.85213       -1.70022
H         -0.40217       -2.17761       -1.90204
H         -0.67815       -0.60858       -4.17799
H          0.27612        0.99900       -4.15992
H          2.34270       -0.14468       -4.44881
H          0.81397       -2.59186       -4.08527
H          2.58804       -1.41861       -2.08563
H          2.28640        1.19345       -2.29036
H          1.80880        1.26918        0.33368
