19
	Energy:    2780.7491196
C         -2.61248       -0.87952       -2.36658
C         -2.67001       -1.16502       -0.85885
C         -1.36138       -1.28675       -1.61209
C         -0.35066       -0.18904       -1.24182
O          0.64833       -0.11969       -2.24204
C          1.79518       -0.78336       -1.74689
C          1.68152       -0.88736       -0.24585
O          1.38510        0.36775        0.31363
C          0.31889       -0.52035        0.07514
H         -2.79462       -1.70322       -3.08950
H         -2.46812        0.16464       -2.71855
H         -2.97980       -0.19846       -0.40691
H         -3.32615       -2.05609       -0.76697
H         -1.04385       -2.35184       -1.64964
H         -0.83709        0.80707       -1.14461
H          1.84613       -1.80310       -2.18443
H          2.70978       -0.21178       -2.01042
H          2.35809       -1.44788        0.43177
H         -0.18967       -0.73875        1.03727
