19
	Energy:    1704.6649545
C         -2.12439       -2.69706       -0.08332
C         -2.81059       -2.77349        1.25225
O         -3.50054       -3.75079        1.50107
C         -2.64453       -1.69018        2.30304
C         -1.88520       -0.40705        2.04342
C         -3.37261       -0.45633        1.74593
C         -4.27302       -0.42219        2.97102
O         -5.62683       -0.63840        2.65493
C         -3.57393       -1.65888        3.52461
H         -1.02497       -2.65482        0.06306
H         -2.36325       -3.59046       -0.69912
H         -2.45916       -1.79286       -0.63282
H         -1.63739        0.24949        2.90534
H         -1.21494       -0.46200        1.16127
H         -3.50336        0.26737        0.91367
H         -4.12111        0.49979        3.57373
H         -5.68422       -1.39342        2.01164
H         -2.99993       -1.41427        4.44487
H         -4.21887       -2.55926        3.61895
