19
	Energy:     646.6525116
O          0.86582       -0.17340       -0.87313
C          0.05523        0.07386        0.00620
C          0.17499        1.31487        0.86292
C         -0.86921        2.37894        0.45655
C          0.24562        3.06688       -0.33775
C          1.27746        2.29763        0.49385
O          1.63882        3.00790        1.67569
C          0.97523        2.40256        2.77247
C          0.46222        1.05217        2.31353
H         -0.76601       -0.61323        0.18085
H         -1.76075        2.06307       -0.12755
H         -1.14956        3.03706        1.30435
H          0.25126        2.63327       -1.36484
H          0.28766        4.17640       -0.36387
H          2.19163        1.91155       -0.00714
H          1.64006        2.29072        3.65498
H          0.13030        3.06068        3.06424
H          1.31996        0.34169        2.34891
H         -0.37449        0.63989        2.91625
