19
	Energy:     750.2508940
O          1.41535       -0.33987       -0.13679
C          0.23014       -0.05724       -0.06314
C         -0.30634        0.66858        1.13308
C         -0.96966        1.99049        0.68710
C         -1.39338        3.07362        1.65375
C         -0.15377        3.36376        2.49829
C          0.83153        3.46445        1.32540
C         -0.19163        3.20162        0.22178
O         -1.24179        4.03896        0.64105
H         -0.43764       -0.33641       -0.87192
H         -1.07593        0.03290        1.61891
H          0.51192        0.81690        1.86424
H         -1.80358        1.78297       -0.02488
H         -2.37965        2.97557        2.15577
H         -0.26974        4.33526        3.02717
H          0.07715        2.54979        3.21737
H          1.25430        4.48816        1.22514
H          1.63988        2.70309        1.34499
H          0.13387        3.24113       -0.83976
