19
	Energy:     867.3360500
C         -0.70122        1.72999       -1.54705
C          0.20001        2.92764       -1.33980
C         -0.55599        3.58968       -0.18418
O         -0.78331        2.47319        0.66183
C         -0.14817        1.50654       -0.13756
C          0.18894        0.14460        0.38694
O          1.25569       -0.31972       -0.42361
C          1.88256        0.82240       -1.00981
C          1.17083        2.09149       -0.49676
H         -1.79932        1.88679       -1.65393
H         -0.31867        1.04236       -2.33185
H          0.52037        3.57945       -2.17983
H          0.06732        4.35825        0.32602
H         -1.51643        4.03824       -0.52438
H          0.55797        0.22198        1.43348
H         -0.69497       -0.52498        0.34100
H          2.95478        0.85991       -0.72307
H          1.83237        0.74382       -2.11628
H          1.71330        2.53413        0.37423
