19
	Energy:    2957.0638180
C         -1.83443       -0.80706       -0.99412
C         -1.90563       -0.18629        0.41479
C         -0.83496        0.76099        0.94829
O          0.31237        0.87391        0.15755
C         -2.04053        1.37268        0.29162
O         -3.27529        1.36927        0.99601
C         -3.26007       -0.02253        1.01147
C         -3.17780       -0.46881        2.47299
C         -4.34886       -0.89575        1.61910
H         -2.15298       -1.86774       -0.92345
H         -2.51471       -0.31047       -1.71951
H         -0.79973       -0.79397       -1.39313
H         -0.75765        0.96901        2.03689
H          0.81901        0.03535        0.31051
H         -2.08644        1.65451       -0.78500
H         -2.66405       -1.41800        2.73823
H         -3.62259        0.16492        3.26980
H         -4.28946       -1.83661        1.03209
H         -5.26117       -0.26470        1.56267
