19
	Energy:    1378.3638842
C          1.23685       -0.32392        0.08221
O         -0.14820       -0.21571        0.30885
C         -0.42351        0.87847        1.16022
C         -1.94792        0.98253        1.33243
C         -2.55177        1.13826        2.73549
C         -2.55422       -0.22407        2.05533
O         -1.69638       -1.12824        2.69511
C         -3.85749       -0.72637        1.59234
C         -4.90119       -1.17066        1.18213
H          1.81346       -0.43806        1.02825
H          1.41314       -1.24737       -0.50930
H          1.60084        0.53188       -0.52413
H          0.07344        0.75375        2.15038
H         -0.08688        1.82891        0.68975
H         -2.57846        1.26224        0.45990
H         -1.79714        1.24611        3.54511
H         -3.51509        1.69250        2.70788
H         -1.22585       -1.61405        1.97055
H         -5.81183       -1.58024        0.82936
