19
	Energy:    1394.4430367
C          0.11289       -0.58258        0.30993
C          1.50955       -0.07380       -0.02626
C          2.59135       -0.26101        0.99947
C          3.04530        0.96619        0.23373
C          4.57632        1.04911        0.12926
O          4.64073        0.17732       -0.97481
C          3.29651        0.45462       -1.20374
C          2.18582       -0.58148       -1.29067
O          1.72213        1.32404       -0.08739
H         -0.23759       -0.13074        1.26165
H         -0.59176       -0.30420       -0.50127
H          0.12826       -1.68775        0.41569
H          2.28407        0.04110        2.02505
H          3.16473       -1.21781        0.97034
H          4.93806        2.07107       -0.13720
H          5.08928        0.63056        1.02309
H          3.19659        1.27235       -1.96779
H          1.55669       -0.40471       -2.18992
H          2.50900       -1.64391       -1.21193
