19
	Energy:    1355.4345888
O         -0.63254        4.37880        2.52607
C         -0.28121        4.07859        1.20709
C         -1.55610        4.12335        0.35138
C         -0.88287        2.79919        0.65241
C          0.01286        2.17592       -0.42554
O          1.10072        1.50310        0.18720
C          1.01777        0.13378       -0.16760
C         -0.16438       -0.03220       -1.03245
C         -0.75679        1.17025       -1.18536
H         -0.02128        3.83435        3.08517
H          0.41343        4.77794        0.69450
H         -2.55170        4.06808        0.84185
H         -1.47191        4.30101       -0.74228
H         -1.28166        2.16875        1.47800
H          0.40465        2.93353       -1.14020
H          1.92920       -0.16691       -0.72572
H          0.89776       -0.48601        0.74571
H         -0.50919       -0.95651       -1.47656
H         -1.64755        1.35309       -1.77229
