19
	Energy:    1345.0359108
C          1.63520        0.12469       -0.03458
O          0.25748        0.15331       -0.32398
C         -0.42102        0.58753        0.83025
C         -0.71069        2.08956        0.92169
O         -0.72772        2.46031        2.27094
C         -1.79489        1.13038        0.43829
C         -2.96534        0.89652        1.40786
C         -3.79765        2.09925        1.53967
C         -4.44405        3.10733        1.66161
H          1.86381       -0.58121        0.79628
H          2.17408       -0.25304       -0.92830
H          2.02644        1.14404        0.17836
H         -0.46325       -0.06924        1.72936
H         -0.10505        2.67694        0.19844
H         -1.43392        3.15075        2.34356
H         -2.00138        1.35250       -0.63145
H         -3.59011        0.07330        1.00443
H         -2.61761        0.60552        2.42108
H         -5.03468        3.97242        1.75883
