19
	Energy:     845.5548441
C          0.53118       -0.90558        0.14641
C          1.12021        0.03167        1.18147
O          0.01129        0.30047        2.03461
C         -0.98292        0.61568        1.06910
C         -0.16306        0.42213       -0.17487
C         -0.46115        0.86542       -1.56296
C          0.97634        0.90781       -2.09837
O          1.86720        1.14786       -1.00186
C          1.05966        1.18640        0.16760
H          1.30828       -1.24083       -0.57646
H         -0.08230       -1.76062        0.51203
H          2.05126       -0.22828        1.72773
H         -1.84195       -0.08977        1.11130
H         -1.32603        1.66851        1.18495
H         -1.17376        0.24859       -2.14954
H         -0.84196        1.90968       -1.49279
H          1.23263       -0.09008       -2.51544
H          1.08150        1.66009       -2.90837
H          0.96188        2.23088        0.54789
