19
	Energy:     489.4982152
C          1.60117        0.10917        0.03162
C          0.13884        0.07737        0.02669
C         -1.06641        0.05155        0.02341
C         -2.53368        0.02123        0.02300
C         -3.05266       -1.30164        0.60492
O         -2.62259       -2.42582       -0.13461
C         -2.90354       -1.48428        2.10300
O         -4.29526       -1.65446        2.26781
C         -4.53636       -1.34123        0.91222
H          1.95215        0.86166        0.76762
H          1.99202       -0.89100        0.31058
H          1.96874        0.38121       -0.97917
H         -2.90532        0.88528        0.61500
H         -2.89469        0.13145       -1.02125
H         -2.98089       -3.25354        0.28264
H         -2.33603       -2.39617        2.39127
H         -2.58944       -0.55803        2.63488
H         -5.08411       -2.15510        0.38877
H         -5.03056       -0.34498        0.85777
