19
	Energy:     156.3290722
C          2.23822        1.15406       -5.45766
C          1.28720        1.80032       -4.45085
C         -0.00481        2.24494       -5.13416
O          0.98395        0.88281       -3.46085
C          1.21757        1.06992       -2.14172
C          0.95047        0.14040       -1.16284
C          1.32805        0.73512        0.02003
C          1.80099        1.99000       -0.31225
O          1.72366        2.16216       -1.61365
H          3.17542        0.84719       -4.94676
H          1.77034        0.25478       -5.91351
H          2.49553        1.87454       -6.26325
H          1.78558        2.70295       -4.03025
H         -0.67598        2.72329       -4.38931
H          0.21627        2.98383       -5.93376
H         -0.53074        1.37375       -5.58056
H          0.53185       -0.84869       -1.29374
H          1.26576        0.30611        1.01124
H          2.17940        2.72968        0.38038
