19
	Energy:     735.9290480
O          3.45046        1.14814       -3.95122
C          2.84856        1.39354       -2.71141
C          2.11863        2.71350       -2.51613
C          2.38992        2.33166       -1.05529
C          3.72530        1.72949       -1.51021
C          1.47832        1.09949       -0.89900
C          1.87668        0.34464       -2.17763
C          1.72243        0.31489        0.36385
O          0.80936        0.11623        1.14896
H          4.12399        0.43750       -3.79262
H          2.72716        3.59243       -2.83935
H          1.06547        2.79970       -2.86950
H          2.32505        3.08728       -0.24355
H          4.48206        2.51854       -1.73791
H          4.18079        0.89403       -0.93466
H          0.41388        1.42889       -0.94130
H          2.42134       -0.60787       -1.98823
H          1.01306        0.18571       -2.86007
H          2.70622       -0.08284        0.58806
