19
	Energy:    1313.8992636
C         -2.46323        0.83064       -1.31931
C         -1.10021        1.21057       -1.89648
C         -0.92545        0.76520       -3.35092
C         -0.14697        0.08067       -2.21969
C          1.33551        0.45564       -2.05862
C          1.76646        0.35356       -0.61754
O          2.16955        1.35319       -0.04315
C          1.73383       -0.92584        0.12011
O          1.37107       -1.95713       -0.42265
H         -2.42259        0.91379       -0.21363
H         -3.23253        1.53345       -1.70168
H         -2.76455       -0.20578       -1.58516
H         -0.70851        2.24232       -1.76536
H         -1.59104       -0.01467       -3.77968
H         -0.20705        1.32275       -3.98881
H         -0.52246       -0.91783       -1.90677
H          1.95338       -0.23223       -2.67320
H          1.52148        1.49101       -2.42365
H          2.04807       -0.95557        1.15855
