19
	Energy:     670.7550106
C          3.77082        1.38140       -0.38004
C          3.25613        0.32206       -1.30504
O          4.04025       -0.31337       -1.99355
C          1.76484        0.08118       -1.41170
C          1.20072       -1.22034       -1.97904
C         -0.04850       -0.99256       -1.13985
C          1.02734       -0.46676       -0.18938
O          1.74134       -1.63289        0.17764
C          1.87063       -2.25192       -1.08633
H          3.47542        1.14141        0.66266
H          4.87877        1.44472       -0.43186
H          3.34193        2.36499       -0.66403
H          1.26570        0.99116       -1.82720
H          1.15459       -1.44113       -3.06635
H         -0.70254       -0.18638       -1.55245
H         -0.65307       -1.86900       -0.80970
H          0.76487        0.18434        0.67094
H          2.93678       -2.41638       -1.34600
H          1.33365       -3.22698       -1.11223
