19
	Energy:    1584.1407200
C         -0.51359       -2.74379        2.16212
C         -0.42323       -1.51915        3.07350
C          0.27434       -1.88559        4.35281
O          1.31489       -1.33223        4.67094
C         -1.83103       -1.00040        3.39667
C         -1.91036        0.45835        3.75917
C         -3.32567        0.94349        3.91123
O         -3.72324        0.44879        2.66153
C         -2.43433       -0.04885        2.38981
H         -1.09073       -3.55846        2.65130
H         -1.01627       -2.47335        1.20897
H          0.50487       -3.11924        1.92440
H          0.16803       -0.73660        2.54404
H         -0.14600       -2.64651        5.00348
H         -2.55360       -1.66402        3.92145
H         -1.14728        1.20556        3.44046
H         -3.86346        0.40431        4.72220
H         -3.38958        2.05127        3.97808
H         -1.85527        0.49500        1.60550
