19
	Energy:     975.2004375
C          0.02660       -0.06082        0.14376
C          1.54498        0.03464        0.01759
C          2.13165        1.41882       -0.25276
C          3.03084        0.76592       -1.30087
O          4.13779        0.06636       -0.78125
C          3.41636       -1.14431       -0.84028
C          3.02662       -1.60670        0.54831
O          2.21270       -0.59457        1.10527
C          2.16130       -0.48515       -1.28517
H         -0.30605        0.45614        1.06822
H         -0.46869        0.41004       -0.73190
H         -0.27873       -1.12709        0.19541
H          1.39116        2.03840       -0.80752
H          2.61288        1.96780        0.58429
H          3.27482        1.28020       -2.25728
H          3.88000       -1.88348       -1.52912
H          2.43512       -2.54754        0.48707
H          3.93304       -1.77925        1.16567
H          1.66639       -0.45372       -2.28092
