19
	Energy:    1016.3966434
O          2.08895        3.81859       -1.77852
C          1.02510        3.05295       -1.28455
C         -0.24726        3.04090       -2.15095
C          0.17413        1.68176       -2.69353
C          1.20192        1.54870       -1.57133
C          0.70144        1.28247       -0.13778
C          0.97877        2.74037        0.21213
C          1.48561        0.27798        0.65378
O          0.91513       -0.64493        1.21197
H          1.87241        4.75444       -1.53321
H         -1.13982        2.93906       -1.49380
H         -0.34960        3.83206       -2.92428
H         -0.61063        0.90067       -2.77980
H          0.74136        1.83064       -3.64013
H          2.26087        1.26347       -1.76793
H         -0.39559        1.08214       -0.14535
H          0.22069        3.26765        0.82884
H          2.01460        2.85458        0.60790
H          2.56464        0.36595        0.73251
