19
	Energy:    1806.4442653
O          2.75382        0.95938       -1.45492
C          1.91230        2.07691       -1.60276
C          0.44698        1.63901       -1.70079
O         -0.04016        1.16328       -0.45501
C          0.05389        2.11524        0.61265
C         -0.39793        3.52360        0.26735
C          1.06208        3.94660        0.10772
C          1.48747        2.61925        0.82622
C          2.15953        3.06482       -0.45063
H          2.49968        0.48867       -0.61841
H          2.18569        2.56837       -2.56050
H         -0.18785        2.45786       -2.09259
H          0.36433        0.83043       -2.45763
H         -0.43687        1.70237        1.51970
H         -1.11140        3.65275       -0.57084
H         -0.77364        4.03357        1.18303
H          1.42388        4.85819        0.63568
H          1.69901        3.03987        1.83630
H          3.19981        3.41945       -0.29129
