19
	Energy:    2099.7753364
C          0.11448        0.27034       -0.18849
C          1.52880       -0.23119        0.15466
C          2.30432        0.40275        1.29022
C          2.57884        0.91032       -0.10394
C          3.25806        0.00250       -1.14139
O          3.33573        0.50234       -2.45376
C          4.25670       -1.05325       -0.72035
O          3.22729       -1.94777       -0.35913
C          2.24792       -1.07690       -0.88986
H         -0.26237        0.97278        0.58483
H          0.08492        0.76642       -1.18296
H         -0.57148       -0.60104       -0.22558
H          1.74525        1.12143        1.92529
H          3.11018       -0.23077        1.71416
H          2.01455        1.78470       -0.49779
H          3.18055       -0.25010       -3.08207
H          4.82391       -1.47415       -1.58057
H          4.88690       -0.73717        0.13844
H          1.69051       -1.49369       -1.75843
