19
	Energy:    2700.9367674
O         -3.34089       -0.27404        2.94633
C         -2.47545        0.76338        2.58331
C         -1.23084        0.98081        3.43780
C         -1.15737        0.18156        2.13406
C         -0.54389        0.98433        0.98266
O          0.00722        0.22587       -0.05298
C         -0.56607        2.49570        0.81826
C         -1.77478        1.69212        0.38774
C         -2.89910        1.66560        1.42512
H         -3.87413        0.08644        3.70027
H         -1.18409        2.08204        3.53493
H         -1.39970        0.40560        4.37366
H         -0.70169       -0.78006        2.45322
H          0.98555        0.24883        0.10481
H         -0.70971        3.13538        1.71004
H          0.16075        2.78149        0.02708
H         -1.98371        2.15992       -0.59825
H         -3.17414        2.68202        1.77918
H         -3.78720        1.21378        0.93413
