19
	Energy:    1379.7349171
C          1.23595        0.71032       -0.20120
C         -0.12606        0.19653        0.15311
C         -1.22939        0.93063        0.10114
C         -2.43314        0.14693        0.46936
C         -1.87742       -1.22221        0.85880
O         -2.55078       -2.38494        0.46275
C         -0.89795       -1.38391        2.00663
O         -0.77040       -2.69948        2.46658
C         -0.36726       -1.21477        0.58276
H          1.90783        0.60882        0.67635
H          1.64661        0.11715       -1.04461
H          1.19919        1.77953       -0.50104
H         -1.25459        1.96878       -0.20500
H         -2.98241        0.60080        1.32068
H         -3.09236        0.07411       -0.42137
H         -3.22620       -2.55082        1.16953
H         -0.77461       -0.53603        2.71501
H          0.20370       -2.85196        2.57475
H         -0.16717       -2.04425       -0.12954
