19
	Energy:    2360.5101152
C          1.40978       -0.27511       -1.44911
C          1.31150        0.16759        0.00868
C          2.17436        1.42430        0.32347
C          1.87533        2.18426        1.60797
O          2.61211        1.29776        2.41357
C          3.03359        0.57829        1.27957
C          2.20785       -0.63212        0.91157
C          2.16232       -2.03024        1.41912
O          1.45616       -1.01400        2.05532
H          0.92233       -1.26520       -1.57136
H          0.88972        0.46166       -2.09651
H          2.46975       -0.35419       -1.77504
H          0.25980        0.26689        0.36149
H          2.87798        1.83656       -0.43418
H          2.34454        3.19270        1.61057
H          0.79466        2.17907        1.86911
H          4.12721        0.59243        1.07432
H          1.49451       -2.71393        0.85559
H          3.05169       -2.34861        2.00094
