19
	Energy:    1873.9913892
O          0.43498       -0.24045       -0.05003
C         -0.51660        0.29904        0.82621
C         -1.97496        0.03907        0.39883
C         -3.02804        1.04861        0.96214
C         -3.30050        0.81183        2.47192
C         -2.03117        0.89492        3.27571
C         -1.95878       -0.56981        2.88820
O         -3.35705       -0.58837        2.66497
C         -1.28994       -0.82054        1.49962
H          0.38506        0.30090       -0.87990
H         -0.36828        1.35805        1.11974
H         -1.89963       -0.01621       -0.70819
H         -2.72939        2.09994        0.76250
H         -3.98107        0.85488        0.42610
H         -4.13544        1.41304        2.89306
H         -1.24052        1.64063        3.06553
H         -2.31945        0.94102        4.35049
H         -1.57649       -1.22443        3.70064
H         -1.29298       -1.85639        1.09904
