19
	Energy:    2251.9894575
C         -1.80175       -3.29252        1.25132
C         -0.31166       -3.39320        1.53425
C          0.66455       -4.50868        1.19411
C          1.72271       -3.37694        1.27164
O          1.72809       -3.00887        2.64016
C          0.42060       -2.50777        2.47224
C          0.62815       -2.41355        0.94185
C          0.89350       -0.91412        0.66704
O          1.81058       -0.34070        1.56821
H         -2.17132       -2.26748        1.46689
H         -1.99487       -3.53069        0.18456
H         -2.34668       -4.01714        1.89053
H          0.78640       -5.32703        1.93661
H          0.51199       -4.86472        0.14907
H          2.70131       -3.43354        0.74998
H          0.04388       -1.55538        2.90926
H          1.32820       -0.82706       -0.34996
H         -0.07735       -0.36545        0.64332
H          1.33620        0.38517        2.05104
