19
	Energy:    1366.2052030
C         -0.47851        1.99641       -1.32298
C         -0.73807        1.20801       -0.03884
C         -2.20705        0.77051        0.03924
C         -2.54575       -0.01250        1.31087
C         -2.24581       -0.75407        0.01211
C         -0.81669       -1.29377       -0.02862
O         -0.62971       -2.01783       -1.21384
C          0.03736       -0.06975       -0.03839
O          1.25787       -0.11074       -0.06662
H         -0.74025        1.39033       -2.21763
H         -1.09057        2.92336       -1.32763
H          0.59251        2.28491       -1.38517
H         -0.47452        1.83578        0.84035
H         -3.03930        1.49113       -0.11519
H         -1.76677        0.14084        2.09023
H         -3.63149        0.07274        1.53729
H         -3.12905       -1.39852       -0.18414
H         -0.62918       -1.93966        0.85983
H          0.22357       -2.51514       -1.11138
