19
	Energy:      90.5268319
C         -3.75309       -1.04526        1.65413
C         -2.84332       -1.35525        0.45669
O         -1.72991       -0.49174        0.55894
C         -0.70232       -0.77410       -0.37997
C          0.41732        0.22868       -0.24517
C          0.17157        1.49305        0.53319
O          1.49370        0.01195       -0.79368
C         -3.57405       -1.15488       -0.80945
C         -4.17064       -0.99129       -1.84432
H         -4.63612       -1.69700        1.66031
H         -3.18931       -1.20056        2.59032
H         -4.08930        0.00386        1.62350
H         -2.52673       -2.40547        0.52276
H         -0.28948       -1.78614       -0.23535
H         -1.08380       -0.70962       -1.41274
H         -0.09140        1.24755        1.57361
H          1.05214        2.14682        0.50839
H         -0.70339        2.02574        0.11668
H         -4.66548       -0.89833       -2.77592
