19
	Energy:    1516.1452784
C          3.19664        2.87838        0.23165
C          1.74902        2.55549       -0.13332
C          1.56426        1.07604       -0.29521
C          0.69208        0.59122        0.58454
C          0.31248       -0.85705        0.69623
O         -1.06713       -1.01130        0.50840
C          0.14694        1.66564        1.45782
O         -0.52513        2.60949        0.65922
C          0.80097        2.91718        1.01522
H          3.49796        2.34734        1.16088
H          3.87406        2.57106       -0.59347
H          3.31072        3.97163        0.39156
H          1.46605        3.09637       -1.06230
H          2.08674        0.47310       -1.02738
H          0.87136       -1.48671       -0.03346
H          0.57629       -1.22086        1.71104
H         -1.23219       -0.92192       -0.46673
H         -0.47032        1.50621        2.36595
H          0.78268        3.89167        1.54610
