19
	Energy:    2707.5106213
O         -2.88632        0.80820        0.87950
C         -1.94415        0.48943        1.87293
C         -1.90129       -0.99338        2.31166
C         -0.43153       -0.80672        2.73227
C         -0.66931       -0.18351        1.35759
C         -1.43675       -1.43215        0.91009
C          0.41726        0.54896        0.57315
C          0.37490        0.44169       -0.90255
O          1.25707       -0.33590       -0.11202
H         -3.77290        0.62281        1.28337
H         -1.83789        1.28246        2.65159
H         -2.67719       -1.50713        2.91837
H         -0.23527       -0.10665        3.57951
H          0.20588       -1.72224        2.76841
H         -2.16454       -1.31799        0.07478
H         -0.85792       -2.38435        0.84720
H          0.97966        1.39875        1.01261
H         -0.34090       -0.25452       -1.38666
H          0.99103        1.15133       -1.49245
