19
	Energy:    2572.1650360
O         -2.29291        1.54967        0.79338
C         -1.82684        0.45021        1.53351
C         -0.53393        0.82234        2.23949
C         -0.48825       -0.17107        1.07704
C         -0.60180       -1.66006        1.31774
O         -0.76409       -2.11419        2.44033
C         -0.18171        0.28822       -0.36657
C          1.11900       -0.37059       -0.82903
C          1.06162        1.12905       -0.64186
H         -2.52419        2.25546        1.45208
H         -2.49732        0.04689        2.32470
H         -0.06315        1.78629        1.95822
H         -0.24439        0.28174        3.16519
H         -0.52830       -2.34554        0.47971
H         -0.90742        0.02177       -1.16558
H          1.88378       -0.70470       -0.09439
H          1.30954       -0.50315       -1.91535
H          1.43315        1.55238        0.31298
H          0.77949        1.78496       -1.49257
