19
	Energy:    1995.8888535
C         -4.51990        3.14229       -5.62553
C         -3.30732        3.85424       -5.10901
O         -2.79463        4.74040       -5.77596
C         -2.72185        3.46570       -3.77678
C         -1.56408        4.30556       -3.20018
C         -2.27267        4.12998       -1.86979
C         -1.91028        4.50028       -0.46761
O         -2.46075        5.43438       -1.32230
C         -3.58106        3.73543       -2.52882
H         -5.36376        3.27766       -4.91727
H         -4.81860        3.54308       -6.61769
H         -4.30003        2.05917       -5.72856
H         -2.40913        2.39387       -3.75696
H         -0.56058        3.84198       -3.30660
H         -1.62087        5.36698       -3.53640
H         -2.62831        4.15337        0.30376
H         -0.82647        4.66518       -0.29717
H         -4.10681        2.84260       -2.12924
H         -4.23396        4.62694       -2.67950
