19
	Energy:    1921.8876783
O          0.38980        0.69600        0.16457
C         -0.99852        0.87087        0.21658
C         -1.52867        2.04336       -0.62564
C         -2.58695        2.17909        0.49451
C         -1.53712        1.61737        1.45396
O         -3.64858        1.21953        0.39780
C         -3.26697        0.03017       -0.29222
C         -2.89183       -1.04705        0.70211
C         -1.79470       -0.41480       -0.16933
H          0.62898        0.16702        0.96909
H         -0.82508        2.90957       -0.57280
H         -1.85740        1.87067       -1.67390
H         -2.99925        3.19097        0.69200
H         -0.82626        2.43221        1.73604
H         -1.85359        1.08464        2.37239
H         -4.00047       -0.41973       -0.99407
H         -2.62250       -0.83424        1.75208
H         -2.93618       -2.10646        0.37195
H         -1.57019       -0.84135       -1.17063
