19
	Energy:    1963.7304690
C         -0.41618        1.02633        0.72957
C         -1.52967        2.00869        0.35724
C         -2.73644        1.26313       -0.21841
C         -1.01026        3.03341       -0.65812
O         -0.52098        2.73498       -1.93012
C         -0.42232        4.13083       -1.82303
C         -1.68016        4.33305       -1.00054
O         -1.07678        5.08620        0.01727
C         -0.07926        4.16972       -0.34643
H         -0.78415        0.29794        1.48330
H         -0.06714        0.46922       -0.16657
H          0.44532        1.57383        1.16794
H         -1.85066        2.54540        1.27695
H         -3.12873        0.53722        0.52539
H         -3.54775        1.98135       -0.46348
H         -2.45496        0.71292       -1.14214
H         -0.03943        4.84872       -2.58089
H         -2.70282        4.43578       -1.42395
H          0.94697        4.06341        0.06732
