19
	Energy:     164.1256027
C         -0.66956        1.88209        2.81966
C         -0.84967        3.03061        1.86498
O         -1.14316        4.12753        2.31276
O         -0.73526        2.88745        0.51778
C         -0.33009        1.74781       -0.15333
C          1.18433        1.53619       -0.04697
C          1.57403        0.82583       -1.33747
C          0.58688        1.38769       -2.29831
C         -0.49627        1.91217       -1.62490
H         -1.40093        1.08140        2.58414
H          0.35785        1.47681        2.75306
H         -0.83822        2.21527        3.86612
H         -0.93510        0.86354        0.14463
H          1.64295        2.55138       -0.12219
H          1.56808        1.07163        0.88292
H          2.63220        1.05092       -1.59045
H          1.40772       -0.27158       -1.28458
H          0.63706        1.29583       -3.37503
H         -1.38792        2.27613       -2.11839
