19
	Energy:    1691.9017402
C         -0.84276       -1.96150        1.40548
C         -0.94595       -1.16236        0.10676
C          0.04315       -0.10050       -0.00520
O          1.25920       -0.15900       -0.08985
C         -0.84864        1.06244       -0.01991
C         -1.86936        1.14662        1.08785
C         -1.99805       -0.01723        0.11536
C         -2.98131        0.08863       -1.06606
O         -3.85793       -1.00330       -1.05235
H          0.06111       -2.60570        1.37402
H         -0.77491       -1.30429        2.29698
H         -1.73781       -2.60985        1.50870
H         -0.98062       -1.81096       -0.79549
H         -0.96913        1.60637       -0.98226
H         -1.45505        0.89398        2.08531
H         -2.57771        1.99157        0.95783
H         -3.56121        1.03919       -1.03835
H         -2.42846        0.07482       -2.03009
H         -4.50332       -0.83756       -0.31608
