19
	Energy:    1288.2605082
C          0.19760        5.03574        0.89140
C         -0.96634        4.29102        0.31501
O         -2.07688        4.43408        0.80702
C         -0.74733        3.38151       -0.87215
C         -1.94279        2.65210       -1.51263
C         -1.10663        1.95688       -0.45655
C         -0.30321        0.79712       -1.05759
C          0.69443        0.31193       -0.05289
O          1.88776        0.32323       -0.30925
H         -0.12159        5.66103        1.75250
H          0.96586        4.31354        1.23867
H          0.63961        5.69474        0.11510
H          0.27698        3.32885       -1.30136
H         -2.86008        3.20071       -1.21307
H         -1.67422        2.58324       -2.58850
H         -1.76662        1.75713        0.41676
H         -0.99515       -0.03589       -1.30401
H          0.22071        1.10048       -1.99211
H          0.35733       -0.05514        0.91138
