19
	Energy:     106.2265554
C         -0.02841        2.51680        0.30683
C         -0.83800        1.25131       -0.00053
C         -2.04426        1.10454        0.93125
C         -2.89390       -0.12355        0.52281
O         -3.61202        0.15417       -0.65034
C         -2.04869       -1.36731        0.30530
C         -0.71391       -1.31539        0.15090
C         -0.01279       -0.01457        0.12442
O          1.20619        0.02046        0.20439
H          0.36748        2.48502        1.34475
H          0.82180        2.61028       -0.40202
H         -0.67161        3.41572        0.19695
H         -1.22442        1.32547       -1.04122
H         -1.66519        0.96223        1.96907
H         -2.68512        2.01343        0.92338
H         -3.60103       -0.28674        1.36897
H         -4.38863       -0.46451       -0.66546
H         -2.54575       -2.33182        0.26782
H         -0.14793       -2.23591        0.04331
