19
	Energy:     161.7825056
C         -0.56117        2.25347       -0.94575
C         -0.97790        1.05911       -0.08480
C         -2.37273        0.52856       -0.46443
C         -2.40576       -0.94515       -0.02675
C         -2.81470       -1.11891        1.43947
C         -0.97709       -1.34595       -0.22005
O         -0.55628       -2.48920       -0.13325
C         -0.13163       -0.15794       -0.27718
O          1.08790       -0.17875       -0.21833
H         -0.57553        1.99193       -2.02553
H         -1.25567        3.10233       -0.77022
H          0.46564        2.57627       -0.67209
H         -0.93018        1.33542        0.99115
H         -3.23503        1.15229       -0.14581
H         -2.39835        0.49197       -1.57972
H         -3.11034       -1.51001       -0.67591
H         -2.77708       -2.19298        1.72036
H         -2.14363       -0.54872        2.11699
H         -3.85474       -0.75603        1.58310
