19
	Energy:    2104.0808367
C         -2.01022        1.23963       -2.04620
C         -1.02828        2.05779       -1.18657
C         -1.19937        3.54890       -0.99770
C         -1.80228        2.63209        0.03738
O         -0.94423        1.96413        0.94543
C         -0.24255        1.37593       -0.11187
C          1.24070        1.51842        0.04392
O          1.34754        0.15939        0.43117
C          0.00771       -0.09280        0.04425
H         -2.68170        0.59755       -1.43541
H         -2.62035        1.90634       -2.69143
H         -1.42434        0.56899       -2.70802
H         -0.28559        4.07517       -0.64834
H         -1.92574        4.02548       -1.68861
H         -2.86226        2.29247        0.01095
H          1.76138        1.64714       -0.93207
H          1.54340        2.23766        0.83597
H          0.02168       -0.63341       -0.92878
H         -0.60983       -0.56507        0.83860
