19
	Energy:     282.8805727
O         -0.69796        0.21602        0.14336
C         -1.78012       -0.63208       -0.14578
C         -2.46087       -1.17956        1.10450
C         -3.30919       -2.26722        0.45928
C         -4.42117       -1.56656       -0.36022
O         -3.91127       -0.74493       -1.40554
C         -2.85478        0.10919       -0.97937
C         -2.30433       -2.88159       -0.47300
C         -1.39034       -1.90627       -0.83798
H         -0.02824       -0.31346        0.65067
H         -1.70481       -1.65455        1.77403
H         -3.02837       -0.43001        1.69939
H         -3.73678       -2.96845        1.20740
H         -5.04025       -2.35835       -0.83280
H         -5.09088       -0.97482        0.30183
H         -2.36321        0.50657       -1.89302
H         -3.26600        0.97835       -0.42005
H         -2.25741       -3.91960       -0.77343
H         -0.52282       -2.06708       -1.46406
