19
	Energy:    2286.1277006
C          0.12370       -0.40629       -0.30472
C          0.92402        0.41448        0.69768
O          2.17957       -0.08389        0.94552
C          2.12242        1.10317        0.13342
C          3.19246        0.92629       -0.88847
C          3.09805        2.26948       -1.60275
C          3.08843        3.14719       -0.33117
C          3.18039        2.00305        0.67137
O          4.18410        1.21206        0.07309
H         -0.41472       -1.21390        0.23295
H         -0.61854        0.24950       -0.80525
H          0.77618       -0.86740       -1.07767
H          0.44196        0.93427        1.55140
H          3.26300       -0.02523       -1.45877
H          4.00173        2.44511       -2.22644
H          2.16233        2.35433       -2.19975
H          3.98750        3.79811       -0.26452
H          2.14774        3.72959       -0.20869
H          3.23931        2.19503        1.76474
