19
	Energy:    1197.1005642
C          1.15137       -0.20217       -3.33511
C          0.18615       -0.11090       -2.15478
C         -1.30697       -0.19229       -2.44249
C         -1.85480        0.23847       -1.09902
C         -0.63419       -0.31205       -0.36456
C          0.46627        0.62554       -0.86404
O          1.72761        0.28165       -0.35115
C         -0.21528       -1.36268       -1.42430
O         -1.30244       -1.58756       -2.27783
H          0.79301       -0.94587       -4.07827
H          1.22737        0.79061       -3.82484
H          2.15710       -0.50831       -2.97905
H         -1.76074        0.19475       -3.37981
H         -1.98597        1.33467       -0.95095
H         -2.81014       -0.29075       -0.88103
H         -0.76671       -0.48269        0.72484
H          0.29784        1.72659       -0.84540
H          1.68454        0.46152        0.62362
H          0.62243       -2.08166       -1.28070
