19
	Energy:     284.4369713
O          0.02257        0.33421       -0.02568
C         -0.70121        1.01693        0.96433
C         -1.10428        0.09629        2.14768
C         -1.91178        0.93493        3.18463
C         -2.03522        2.39259        2.66735
O         -0.71785        2.93930        2.53358
C          0.07724        2.22110        1.56903
C         -2.67809        2.33441        1.29043
C         -1.97535        1.61395        0.39894
H          0.86209        0.01252        0.39505
H         -1.72450       -0.74877        1.77543
H         -0.19920       -0.33202        2.63168
H         -2.92423        0.49410        3.31742
H         -1.39893        0.93036        4.17075
H         -2.63816        3.01225        3.36392
H          0.36363        2.91997        0.75313
H          1.00446        1.85789        2.06231
H         -3.60863        2.83373        1.04154
H         -2.29235        1.48891       -0.63153
