19
	Energy:    1805.6760400
C          2.27995        1.31461        0.07615
C          2.89645       -0.05189        0.16378
C          1.39299        0.11893       -0.23908
C          1.72782       -0.51918       -1.58283
O          0.82788       -1.51091       -2.06841
C          1.16022       -2.85437       -1.74614
O          2.55336       -3.11742       -1.76093
C          3.12232       -2.39876       -0.70040
C          3.09678       -0.92483       -1.07889
H          2.03356        1.79079        1.04794
H          2.55760        1.92055       -0.81274
H          2.97892       -0.48133        1.18959
H          0.92609       -0.55309        0.51729
H          1.83393        0.29102       -2.34020
H          0.67819       -3.16023       -0.78915
H          0.70295       -3.50153       -2.52235
H          2.57835       -2.61989        0.25077
H          4.16871       -2.72231       -0.51992
H          3.87735       -0.64860       -1.82138
