19
	Energy:    1716.6072685
C          1.19896       -0.36355        0.98901
C          0.85567       -0.01900       -0.45458
C          1.85190       -0.73245       -1.38752
C          1.42944       -2.00000       -2.07516
C          1.49382       -0.72621       -2.91935
C          2.91864       -0.17956       -3.23586
O          2.86629        1.06169       -3.88567
C          3.10772       -0.09444       -1.78699
O          3.54578        0.90365       -1.23352
H          1.12465       -1.46309        1.13802
H          2.23256       -0.03644        1.23215
H          0.48975        0.13713        1.68023
H         -0.18710       -0.35023       -0.65411
H          0.90235        1.08244       -0.60485
H          2.25482       -2.71626       -2.27448
H          0.38867       -2.34177       -1.89290
H          0.66524        0.01704       -2.95789
H          3.59399       -0.92169       -3.71593
H          3.77324        1.45884       -3.80028
