19
	Energy:     721.2865803
C          0.10479       -0.33870       -0.55981
C          1.53731       -0.06744       -0.10279
C          2.27729       -1.33025        0.37942
C          3.52976       -0.64086        0.93092
O          4.32388       -0.24302       -0.16530
C          3.60441        0.96713       -0.25747
C          2.37233        0.71686       -1.13350
C          3.01393        0.77892        1.13518
O          1.60860        0.76083        1.02241
H         -0.46964       -0.83394        0.25157
H         -0.40238        0.61478       -0.81911
H          0.10950       -0.99894       -1.45288
H          1.69557       -1.77633        1.21698
H          2.48942       -2.10222       -0.39147
H          4.09287       -1.15318        1.73981
H          4.23253        1.85500       -0.48339
H          1.85611        1.68143       -1.33848
H          2.59601        0.19340       -2.08805
H          3.51355        1.35339        1.94387
