19
	Energy:     626.1418328
C         -4.17812       -1.37472       -1.18763
C         -2.73947       -0.93551       -1.50545
C         -2.61262        0.58805       -1.56710
C         -2.20536        0.57766       -0.07169
C         -0.88522        1.26828        0.25489
C          0.06998        0.24615       -0.24161
O          1.27993        0.40049       -0.27130
O         -0.52065       -0.92327       -0.55480
C         -1.87072       -0.91023       -0.24695
H         -4.60892       -0.82845       -0.32150
H         -4.82328       -1.19487       -2.07330
H         -4.19005       -2.46129       -0.95887
H         -2.35033       -1.50872       -2.37519
H         -1.73033        0.82785       -2.20528
H         -3.50466        1.17915       -1.86725
H         -3.10090        0.80449        0.54838
H         -0.81711        2.25569       -0.24939
H         -0.72584        1.36926        1.34925
H         -2.08771       -1.62832        0.57375
