19
	Energy:    1544.9110349
O         -0.53874       -0.02867       -2.49739
C          0.69016       -0.27983       -1.87042
C          1.22296       -1.65864       -2.30928
C          2.47295       -2.15027       -1.53794
C          3.44484       -1.04001       -1.21443
C          3.12888       -0.08298       -0.31704
C          1.81426       -0.11257        0.43584
O          1.04833        1.04492        0.14944
C          0.54463       -0.16732       -0.34696
H         -0.69346        0.95082       -2.44377
H          1.43553        0.47064       -2.22960
H          0.44136       -2.44409       -2.21857
H          1.47676       -1.55894       -3.38784
H          2.17023       -2.61178       -0.57239
H          2.95891       -2.94624       -2.14165
H          4.41621       -1.02196       -1.69867
H          3.84031        0.70865       -0.10468
H          1.82264       -0.22305        1.53990
H         -0.29153       -0.62799        0.21946
