19
	Energy:    1441.4188809
O         -0.14634        2.30761       -0.62278
C         -0.93113        1.31850       -0.01321
C         -1.95756        0.77998       -1.02527
C         -2.29107       -0.62332       -0.53259
C         -0.89812       -1.12711       -0.13739
C         -1.11926       -2.00713        1.11391
C         -0.41489       -2.57761       -0.07742
C         -0.14950        0.08361        0.31144
O          0.91732        0.07414        0.90798
H          0.43341        2.68514        0.08899
H         -1.41762        1.69874        0.91379
H         -2.83185        1.44471       -1.19040
H         -1.43791        0.64964       -2.00417
H         -2.95194       -0.50281        0.35835
H         -2.80416       -1.24655       -1.29550
H         -0.35407       -2.06477        1.91833
H         -2.02266       -2.64888        1.20760
H          0.69093       -2.50725       -0.15986
H         -0.99500       -3.09359       -0.87204
