19
	Energy:    1967.8684220
O          0.39046        0.51577        0.25537
C         -0.88342        0.07196        0.62757
C         -2.00914        0.86608       -0.00975
C         -3.51126        0.61332        0.24229
C         -3.91409       -0.03321       -1.07740
C         -3.06837       -1.15970       -0.49311
C         -3.60253       -0.77124        0.88230
C         -1.64758       -0.55579       -0.53853
O         -1.06727       -0.44486       -1.80953
H          0.50495        1.39632        0.69715
H         -0.99308       -0.39140        1.62712
H         -1.74196        1.63207       -0.77344
H         -4.07511        1.48247        0.64108
H         -5.00038       -0.29315       -1.10891
H         -3.60024        0.44356       -2.03480
H         -3.15420       -2.19662       -0.88058
H         -4.66214       -1.09517        1.02764
H         -3.02664       -1.01052        1.79803
H         -0.43658       -1.20698       -1.86994
