19
	Energy:     348.9611223
C         -0.70426       -1.47845       -2.59768
C         -1.63120       -1.36203       -1.38458
C         -2.55029       -0.13808       -1.38055
C         -2.26821        0.41139        0.03154
C         -0.92656        1.16459        0.05513
C         -0.04950       -0.01135       -0.04688
O          1.16594       -0.01123        0.06565
C         -0.93985       -1.20440       -0.02640
O         -1.99954       -0.75185        0.78441
H         -0.05482       -2.37243       -2.48762
H         -1.30868       -1.58721       -3.52248
H         -0.06270       -0.57803       -2.69895
H         -2.26381       -2.27722       -1.31523
H         -2.34949        0.62947       -2.16022
H         -3.60269       -0.49031       -1.45932
H         -3.09842        1.05074        0.40173
H         -0.81742        1.91223       -0.75876
H         -0.75870        1.63849        1.04656
H         -0.42882       -2.12624        0.32510
