19
	Energy:    1627.8455766
C         -0.12832        0.23657       -0.10292
C          1.36716       -0.11000        0.00062
O          1.54615       -1.00221        1.07462
C          2.20011        1.18983        0.13990
C          2.55533        1.54531       -1.27740
C          2.35518        0.48412       -2.13763
C          1.81226       -0.64486       -1.35800
C          1.52058       -1.98470       -1.91241
O          2.75165       -1.68516       -1.28312
H         -0.47950        0.69855        0.84457
H         -0.32514        0.94823       -0.93447
H         -0.72367       -0.68503       -0.27945
H          2.52010       -1.15951        1.18188
H          1.63898        1.97993        0.68414
H          3.17192        1.01878        0.65125
H          3.01560        2.47578       -1.58168
H          2.61020        0.48076       -3.18921
H          0.95960       -2.69816       -1.27392
H          1.70421       -2.15048       -2.99433
