19
	Energy:    2693.6127740
O         -2.34684        1.62746       -0.24272
C         -1.26529        1.03378        0.41641
C         -1.43951       -0.57201        0.40546
O         -0.18130       -1.18075        0.46034
C         -1.69963        0.26046        1.59859
C         -1.16398        0.19826        3.00387
C         -2.31936       -0.77008        3.33499
C         -2.90661        0.37983        2.48996
C         -2.09829        1.37774        3.34614
H         -2.49612        2.48773        0.22697
H         -0.27815        1.18620       -0.07063
H         -2.01112       -0.75984       -0.52880
H         -0.31992       -2.01647        0.97543
H         -0.10113        0.08694        3.30544
H         -2.28260       -1.77711        2.85167
H         -2.63954       -0.81951        4.40320
H         -3.96307        0.49062        2.16650
H         -1.85561        2.36096        2.87346
H         -2.40284        1.48037        4.41514
