19
	Energy:    1616.3033345
O          1.17601        0.10875       -0.37623
C          0.05834        0.81140        0.08809
C         -1.17651        0.29130       -0.59448
C         -1.95979        1.01657       -1.38957
C         -3.04200        0.18871       -2.01548
C         -3.07524       -1.08152       -1.16230
C         -1.68257       -1.10750       -0.55261
C         -1.03196       -2.29051        0.09226
O         -1.85156       -1.44200        0.81972
H          1.94804        0.43928        0.15246
H         -0.05852        0.66577        1.18458
H          0.18688        1.89532       -0.12995
H         -1.76478        2.05102       -1.64220
H         -4.04219        0.67258       -2.02558
H         -2.71123       -0.02279       -3.05519
H         -3.80404       -0.88523       -0.34095
H         -3.39675       -1.99310       -1.70880
H         -1.52278       -3.26959       -0.08612
H          0.03046       -2.17490        0.38813
