19
	Energy:    1627.3859099
C          3.15699        0.10630       -5.11691
C          2.41598        1.20446       -4.41101
O          2.52826        2.35472       -4.80674
C          1.54739        0.92303       -3.20979
O          1.36921       -0.45159       -2.98134
C         -0.03375       -0.34711       -3.11582
C         -0.59290        0.17787       -4.41656
C          0.08425        1.15254       -3.47776
C         -0.74228        1.99878       -2.49238
H          3.85130       -0.38998       -4.40720
H          2.43950       -0.64311       -5.51044
H          3.74597        0.51315       -5.96651
H          1.90645        1.45206       -2.29872
H         -0.62511       -0.44713       -2.17797
H          0.00537       -0.11724       -5.30348
H         -1.70097        0.23515       -4.44863
H         -0.59931        1.67772       -1.43774
H         -0.40677        3.05377       -2.56769
H         -1.82290        1.96304       -2.74574
