19
	Energy:     764.9720000
C         -0.08305        0.14136       -0.13309
C          1.41740       -0.01471        0.12169
C          2.16246       -1.26041       -0.30464
C          3.31949       -0.29588       -0.07907
O          3.31605       -0.14349        1.31953
C          1.98614        0.30564        1.47384
C          2.04092        1.81680        1.42676
O          2.58137        2.08449        0.15035
C          2.42010        0.86326       -0.56126
H         -0.64146       -0.59955        0.47606
H         -0.43334        1.16040        0.12747
H         -0.29980       -0.03963       -1.20669
H          2.10833       -2.15847        0.35073
H          2.00197       -1.49720       -1.38289
H          4.33302       -0.46478       -0.49960
H          1.48873       -0.17505        2.34364
H          1.03119        2.27219        1.51640
H          2.70010        2.20610        2.23171
H          2.28123        0.95201       -1.66341
