19
	Energy:     625.6783768
C         -3.20597       -1.20281       -0.96650
C         -2.13557       -0.70710        0.01692
C         -2.68686       -0.53338        1.45495
C         -2.84988        0.95875        1.16321
C         -1.85895        0.80069        0.01072
O         -0.54822        0.91001        0.44304
C          0.10243       -0.26672        0.35528
O          1.30705       -0.36515        0.52273
C         -0.76909       -1.38610       -0.08537
H         -3.42544       -2.27330       -0.76981
H         -4.14902       -0.62439       -0.87191
H         -2.83644       -1.09880       -2.00842
H         -3.59583       -1.09523        1.75973
H         -1.86639       -0.64111        2.20228
H         -3.86071        1.12106        0.72442
H         -2.63165        1.69274        1.96761
H         -2.01717        1.39960       -0.91218
H         -0.48466       -1.62741       -1.13225
H         -0.72691       -2.29256        0.55543
