19
	Energy:    1563.3516070
C          5.19440       -1.63241        0.04292
C          4.37786       -1.37167        1.30528
O          3.07660       -1.95912        1.32957
C          3.14946       -0.54269        1.34901
C          2.78828        0.09596        2.68607
C          2.61069        0.13926        0.09744
O          3.16601        1.42647       -0.03654
C          1.13308        0.18594        0.10837
C         -0.07017        0.24277        0.14622
H          5.63873       -2.64361        0.09886
H          4.62940       -1.56330       -0.88592
H          6.03387       -0.90736        0.00642
H          4.92311       -1.48808        2.23775
H          3.21348       -0.46370        3.52756
H          3.17582        1.13358        2.71795
H          1.69082        0.13788        2.80363
H          2.90513       -0.43090       -0.77877
H          2.57248        2.08170        0.41561
H         -1.12452        0.32469        0.15848
