19
	Energy:    1903.0442566
C          1.10211        1.36384        0.21364
C          0.95379       -0.14856        0.06916
C          1.77970       -0.68036       -1.11371
C          1.23948       -0.31573       -2.50016
C          1.08191       -1.79801       -2.78130
O          2.28348       -2.52351       -2.63498
C          1.62365       -2.16844       -1.45222
C          0.70093       -3.18271       -0.83230
O          0.07846       -2.93617        0.18722
H          0.50884        1.71373        1.08456
H          2.16746        1.63204        0.37825
H          0.73289        1.88221       -0.69627
H          1.31555       -0.62769        1.00420
H         -0.12238       -0.39160       -0.06658
H          2.86346       -0.44083       -1.02750
H          0.23313        0.15611       -2.48944
H          1.98331        0.15356       -3.17962
H          0.51496       -2.30472       -3.59028
H          0.59888       -4.16233       -1.28898
