19
	Energy:    1460.8919451
C         -2.92190       -2.80466        1.41343
C         -3.24878       -1.48028        0.71692
C         -2.92212       -1.34176       -0.76833
C         -2.02837       -0.68139        0.31085
C         -2.03286        0.84218        0.14003
O         -0.76089        1.14033       -0.29430
C          0.05380        0.06723       -0.28363
O          1.23835        0.14746       -0.56490
C         -0.59422       -1.18686        0.17563
H         -2.61540       -2.60228        2.46081
H         -3.83266       -3.43813        1.42575
H         -2.11123       -3.37033        0.90680
H         -4.00781       -0.80050        1.16138
H         -2.71085       -2.37037       -1.13238
H         -3.81389       -0.82174       -1.17936
H         -2.78693        1.20535       -0.59139
H         -2.20004        1.33949        1.11876
H         -0.46842       -2.00267       -0.56960
H         -0.16510       -1.47982        1.15690
