19
	Energy:    2622.7950256
O          1.54167        3.88431        1.55237
C          1.47549        2.84098        0.61870
C          1.25503        3.32563       -0.79912
C          2.62667        2.77568       -0.36275
C          0.72812        1.56651        1.02682
C          0.46323        0.34031        0.16840
C         -0.19538        0.29041        1.54898
C          1.11432        0.71085        2.21840
O         -0.60629        1.63119        1.44022
H          0.64795        4.31548        1.54759
H          0.90762        2.62310       -1.58562
H          1.44118        4.39213       -1.04724
H          2.85574        1.70392       -0.54363
H          3.40348        3.48782       -0.00931
H         -0.23941        0.49889       -0.68040
H          1.30982       -0.35671       -0.03716
H         -0.88615       -0.50175        1.91228
H          0.99672        1.20243        3.21058
H          2.00015        0.03946        2.12118
