19
	Energy:    3079.8134307
O         -0.48925        0.74421       -3.86182
C         -0.12448       -0.43880       -4.51299
C          0.00771       -1.64705       -3.61034
C          0.49537       -2.91523       -4.28021
C          1.70424       -2.15010       -4.79900
C          3.04990       -2.67312       -4.29004
C          4.22552       -2.42488       -5.15513
O          3.56361       -3.67601       -5.12087
C          1.25474       -0.87794       -4.07739
H         -1.44447        0.63314       -3.61972
H         -0.44580       -0.58461       -5.56756
H         -0.89531       -1.63098       -2.96367
H          0.72744       -3.67001       -3.49752
H         -0.19889       -3.25954       -5.07723
H          1.64242       -2.01014       -5.90318
H          3.23345       -2.89503       -3.21730
H          4.07887       -1.99508       -6.16838
H          5.23404       -2.56514       -4.71413
H          1.66625       -0.68435       -3.06175
