19
	Energy:      52.4752240
C         -3.29732        0.58135        4.75356
O         -3.56376        1.01173        3.43959
C         -2.91180        0.16655        2.51655
C         -3.23843        0.66394        1.10631
C         -2.51806       -0.12488        0.05034
O         -3.14376       -0.77090       -0.77525
C         -1.08039       -0.07699       -0.01842
C          0.12005       -0.00203       -0.08226
C          1.57613        0.10781       -0.14203
H         -3.72487       -0.42777        4.94142
H         -2.20982        0.61962        4.98718
H         -3.80032        1.28327        5.45025
H         -1.80803        0.20135        2.66823
H         -3.27884       -0.88293        2.60993
H         -4.33776        0.59441        0.95342
H         -2.93793        1.72941        1.00803
H          1.91225        0.92320        0.53202
H          2.02701       -0.85097        0.18458
H          1.88952        0.33480       -1.18161
