19
	Energy:     580.1978101
C         -0.05405        1.40609        0.06048
C         -0.18101       -0.06890        0.42156
C         -1.04547       -0.85418       -0.52553
C         -2.36992       -1.29823        0.10382
C         -1.67696       -2.51229        0.72338
O         -1.28056       -2.22918        2.04145
C         -0.51758       -2.26009       -0.25308
O          0.76305       -2.20659        0.34991
C          1.11763       -0.84285        0.35004
H          0.35322        1.52598       -0.96639
H         -1.05228        1.88900        0.11288
H          0.62272        1.90988        0.78185
H         -2.89811       -0.59739        0.78625
H         -3.02336       -1.63758       -0.73158
H         -2.18213       -3.50075        0.65248
H         -2.11433       -2.18861        2.57815
H         -0.57973       -2.86570       -1.18455
H          1.66831       -0.62145       -0.59286
H          1.75603       -0.59505        1.22349
