19
	Energy:    1496.4643537
C          6.56037       -1.17034       -3.98578
O          5.71442       -0.92062       -2.88302
C          4.39217       -0.72580       -3.33537
C          3.51438       -0.46412       -2.18088
C          2.79166       -0.25625       -1.23658
C          1.90134        0.00336       -0.09065
C          1.63101        1.49969        0.05112
C          0.36719        1.89236        0.71746
O          0.52887        1.94335       -0.69227
H          7.59174       -1.31481       -3.60101
H          6.27732       -2.10472       -4.51978
H          6.59184       -0.30675       -4.68713
H          4.32076        0.14877       -4.01833
H          4.00763       -1.63375       -3.85286
H          0.96504       -0.58590       -0.20744
H          2.41112       -0.33969        0.83301
H          2.45818        2.23576        0.09420
H         -0.39616        1.12079        0.95523
H          0.30665        2.92927        1.11331
