11
Properties=species:S:1:pos:R:3:forces:R:3 Coordinates=T from=T ORCA-job=T run=T Energy:=T 16.3930626=T energy=-6393.569660465156 pbc="F F F"
C        1.14069079      -0.00466687      -0.13179630      -0.02168506       0.03533025       0.01027703
H        1.88268984       2.03954397      -0.30482280      -0.01951642       0.02160148       0.00933049
F       -1.79116686       0.41528728       0.22910687       0.00168617      -0.03002594      -0.02140128
H        1.85069206      -0.33400684       0.64068231      -0.00328594      -0.00932677      -0.01510839
C        0.93219504       1.50923383      -0.11427606       0.00723889       0.00305315      -0.01904113
H        1.50365970      -0.33092809      -1.11537983      -0.00938819      -0.00946364       0.03032106
H        0.14468910      -0.42205076       0.05677012      -0.01348509      -0.03583205      -0.00111113
H        0.59259446       1.77697556       0.90353399       0.03881400       0.00448751      -0.02646827
N       -0.06716495       1.84751454      -1.13583079       0.02210460       0.00207616       0.01780055
H       -0.30097909       2.83449843      -1.02127111       0.00718189       0.02919531      -0.00516872
H       -0.91550569       1.32017497      -0.77378673      -0.01247107      -0.02120745       0.00934459
