10
Properties=species:S:1:pos:R:3:forces:R:3 Coordinates=T from=T ORCA-job=T run=T Energy:=T 64.0037153=T energy=-87230.72984788148 pbc="F F F"
C        0.97436964       0.00299739      -0.17058760       0.01199095      -0.00308097       0.01142863
H        1.08158709       2.01164691       0.64576729      -0.05627213      -0.05144166      -0.04102957
Cl      -1.98124722      -0.26933850       1.38047196       0.01979217       0.01444649       0.00748080
Br       2.93894837      -0.15084986      -0.56588741      -0.01318367      -0.01888180       0.01614108
C        0.50764571       1.44762978      -0.09799985       0.00893722       0.01665270      -0.03917663
H        0.47347494      -0.55157917      -0.95845120       0.02969228       0.00159652       0.02741356
H        0.81004908      -0.48906533       0.78065202      -0.01767161      -0.02738717       0.02399426
H       -0.53567299       1.37821274       0.26218268       0.04990123      -0.00166951       0.00811510
C        0.55869052       2.14189426      -1.38005089      -0.04697181       0.09044953      -0.17280056
N        0.57718003       2.67423319      -2.40537309       0.01228801      -0.02515385       0.15882238
