14
Properties=species:S:1:pos:R:3:forces:R:3 Coordinates=T from=T ORCA-job=T run=T Energy:=T 19.2364601=T energy=-77490.82891548367 pbc="F F F"
C        0.18485978      -0.00562727      -0.11480647       0.04191222      -0.07834437      -0.02612356
H        1.57111955       1.54867788      -0.16167551      -0.00503460       0.00367942       0.09605806
F       -1.22805696      -0.21211895      -0.06112452      -0.00147717       0.04800002       0.01161561
Br       3.77080094      -0.44297329       0.65381834      -0.02836747       0.02908837       0.02355151
C        0.48244970       1.48006309      -0.06430259      -0.08277966      -0.05341812       0.01839795
H        0.52783476      -0.42545314      -1.06198291      -0.00284871      -0.02458066       0.08094460
H        0.63476614      -0.54308393       0.72208359       0.00700712       0.05360835      -0.10671058
C        0.02511910       2.10605666       1.26637044      -0.00363100       0.00908781       0.01112154
H       -1.05166113       1.95509398       1.41075298       0.03420938       0.01094583      -0.03463359
H        0.54323485       1.67432902       2.13033200       0.05551288      -0.01499141      -0.12274024
H        0.21736769       3.18535177       1.26689325       0.00784632      -0.00692451       0.02118124
N       -0.12841889       2.11017606      -1.25331490      -0.04926244       0.05742560       0.04736766
H        0.04859257       3.11204693      -1.23483691       0.00317218      -0.04795645       0.01506844
H       -1.13729792       1.99470144      -1.18242903       0.00900430       0.00765111      -0.03914344
