13
Properties=species:S:1:pos:R:3:forces:R:3 Coordinates=T from=T ORCA-job=T run=T Energy:=T 42.0296083=T energy=-78494.13220358104 pbc="F F F"
C        0.30191290       0.01461031      -0.22982907       0.03141218      -0.01374148      -0.00458731
H        2.28764798       1.03474267       0.16404299      -0.02547183       0.02494702      -0.00320748
Br      -2.19369680      -1.51271894       0.26738523      -0.00731555      -0.01876707       0.00826684
F        3.11659127       1.16010367       0.58974106       0.00314840      -0.02079517      -0.00141204
C        0.21395275       1.36438426      -0.13734882      -0.04311025      -0.02161015       0.00495665
H        0.30598298      -0.50022313      -1.17986569      -0.00205188       0.01534255      -0.01938329
H        0.43312137      -0.59765144       0.64975432       0.01993401       0.01047291       0.02086447
C        0.07996256       2.07249906       1.19678309      -0.00201958       0.01705285      -0.00849636
H       -0.95883989       2.02257003       1.54099533       0.00934507      -0.00481969      -0.01231240
H        0.71120692       1.59801315       1.95163226      -0.02758061      -0.00774667      -0.02014645
H        0.36983988       3.12240803       1.12423324       0.03357300       0.02187948       0.01802198
C        0.01643737       2.15452399      -1.31158844       0.00430421      -0.00701170       0.03068298
N       -0.12380516       2.83391882      -2.23979829       0.01439897       0.00366905      -0.01261085
