13
Properties=species:S:1:pos:R:3:forces:R:3 Coordinates=T from=T ORCA-job=T run=T Energy:=T 42.3354801=T energy=-86043.46128271216 pbc="F F F"
C        0.07298875       0.00589541       0.07646420      -0.04047647      -0.05781891      -0.01050398
H        2.21643725       1.08263464      -0.10671291      -0.06873607      -0.04553157      -0.04185723
Br      -1.96843333      -0.68620105       0.14077737       0.04416606       0.01276701       0.04587559
F        3.02451704       0.65317626      -0.34510183      -0.00090830       0.04686507       0.08462208
C        0.23675579       1.43249457       0.01069571      -0.01592242      -0.01764230      -0.02624029
H        0.40169862      -0.52964976      -0.80080804       0.07395478       0.11149988      -0.07084806
H        0.45331396      -0.40687904       1.00011328      -0.10565514      -0.03043605      -0.00511877
N       -0.02032397       2.17402189       1.21928412       0.10953550      -0.02508383       0.05798262
O       -0.47866225       3.31289729       1.19449731       0.04923741      -0.11541734      -0.02882137
O        0.24341543       1.57021514       2.27373035      -0.03776147       0.08234769       0.05913139
N        0.10307906       2.10345566      -1.24643050       0.09799415       0.03500763      -0.04368451
O        0.37794786       3.30322956      -1.32254948      -0.09379127      -0.03268821      -0.09358546
O       -0.18019168       1.40345993      -2.23165306      -0.01242595       0.03791758       0.07457577
