13
Properties=species:S:1:pos:R:3:forces:R:3 Coordinates=T from=T ORCA-job=T run=T Energy:=T 37.9956979=T energy=-14658.693997508419 pbc="F F F"
C        0.89351812       0.00658104      -0.01733252      -0.00827322       0.01703390       0.01595728
H        1.84031570       1.96803657      -0.10005514       0.00406333      -0.01998907       0.00090737
F       -1.77265510       0.16238138      -0.74609599       0.02295201      -0.03689518      -0.02068911
F        1.86040864      -0.44793552       0.89473146       0.01431182      -0.01337113       0.01130876
C        0.83301035       1.53161840      -0.08180164      -0.01879521       0.02140374       0.03058959
H        1.18904989      -0.34617026      -1.00876445      -0.04658507       0.00905824      -0.00378315
H       -0.10386648      -0.37629562       0.21090107      -0.00991738       0.00449109       0.00374853
N        0.36255140       2.09502368       1.38587320      -0.02524774      -0.01050813       0.00784965
O       -0.62670641       2.80892196       1.42514565      -0.00882050       0.03728483      -0.01985200
O        1.06862007       1.84290388       2.35459439       0.04165951      -0.02415516       0.00828941
N       -0.01491730       1.92511150      -1.10996293       0.01769727       0.00857015      -0.04280976
H       -0.24297910       2.91013440      -1.05569099       0.03222382       0.02938277       0.02060480
H       -0.90056803       1.28651616      -1.06658924      -0.02536723      -0.02754524       0.01132399
