15
Properties=species:S:1:pos:R:3:forces:R:3 Coordinates=T from=T ORCA-job=T run=T Energy:=T 16.8445757=T energy=-19531.943333941505 pbc="F F F"
C        0.33325945      -0.07469036      -0.15129986      -0.00289025       0.00296914      -0.00551506
H        1.59812885       1.48169625      -0.27260926       0.01976215       0.00896736      -0.00686824
Cl      -1.45757103      -0.62631592       0.08027979      -0.00880983       0.01310069      -0.01804369
F        2.47938333       0.11778225       1.40664474      -0.02478680       0.01610916       0.03672971
C        0.50583905       1.43383852      -0.17377059       0.01967759       0.01522372      -0.00747345
H        0.61299295      -0.53617902      -1.09880235      -0.00374617      -0.00673837      -0.02881263
H        0.96107831      -0.44465052       0.67745991       0.01533851      -0.02930130       0.00377710
C        0.22590459       2.03246494       1.20943998       0.01033031       0.02502382      -0.00953129
H       -0.81516186       1.89758427       1.52572496      -0.00023867      -0.03325866      -0.01885687
H        0.91561905       1.51368377       1.88380562       0.00255593      -0.01023605      -0.00822488
H        0.44450529       3.10734967       1.22459633       0.01889942       0.04235833      -0.01046408
C       -0.18087423       2.15172698      -1.33932799      -0.00419753      -0.01369787       0.02480044
H        0.10856510       1.71572491      -2.30501667      -0.01504403       0.00920891       0.03103058
H       -1.27255211       2.09215134      -1.26562815       0.00444206      -0.00059817       0.00721541
H        0.09544842       3.21399152      -1.36243937      -0.02370741      -0.03021510       0.00937836
