13
Properties=species:S:1:pos:R:3:forces:R:3 Coordinates=T from=T ORCA-job=T run=T Energy:=T 36.6916465=T energy=-81984.6292369621 pbc="F F F"
C        0.31664070      -0.06559412      -0.18801500       0.02637895      -0.02165466      -0.00944781
H        1.63925203       1.49487420      -0.56348895      -0.02031388      -0.00277155      -0.00424054
Br      -1.59067899      -0.54491254       0.15589887       0.02483191       0.03950085       0.00070713
F        2.12716681       0.26238958       1.89900149      -0.00988649      -0.00882934      -0.01200699
C        0.60516606       1.42327723      -0.17839202      -0.00482060       0.00904896       0.00580437
H        0.54498694      -0.51093164      -1.14988126       0.00101634      -0.03805187      -0.01868777
H        0.92209125      -0.44837589       0.64617308       0.02148622      -0.00900836       0.01645182
N        0.40260620       1.99182949       1.10489560      -0.01289501       0.01812040       0.00850937
H        0.74939932       2.94648950       1.11065213       0.00168396       0.01582495      -0.02175893
H        1.06999056       1.38959922       1.69030541      -0.03800423      -0.00908517      -0.00626266
N       -0.18232033       2.15979885      -1.29848270       0.02698826       0.00971722       0.00886897
O       -0.74365093       3.20670037      -1.02572207      -0.00017734      -0.00252417      -0.00245137
O       -0.12428416       1.67582320      -2.42569207      -0.00823289      -0.00230614       0.04797500
