13
Properties=species:S:1:pos:R:3:forces:R:3 Coordinates=T from=T ORCA-job=T run=T Energy:=T 42.1835815=T energy=-77925.8904435787 pbc="F F F"
C        0.38998275      -0.01354090      -0.27146321       0.00407865      -0.03956962       0.01895607
H        1.63670111       1.58568153      -0.49348812       0.01842435       0.03212784      -0.01842750
Br      -1.53159705      -0.61320717      -0.02487553       0.02444858      -0.00011234      -0.01051669
F        2.18507108       0.27273702       1.84960826      -0.02166920      -0.04082792       0.01033119
C        0.56874131       1.49179151      -0.22332409       0.01252493      -0.00502039       0.03769059
H        0.65319405      -0.42401662      -1.24444534       0.00021833       0.02750991       0.01234720
H        0.97602587      -0.41826810       0.56572914      -0.01974926       0.00330324      -0.00488624
N        0.32324325       1.96282381       1.13486182       0.00755670       0.02941884       0.03677449
H        0.67852486       2.91690219       1.19795865      -0.00256757       0.02946803      -0.03237812
H        0.99669752       1.37242643       1.70056563       0.00149607      -0.02874261      -0.03965911
N       -0.19925352       2.18907095      -1.26528935       0.00141447      -0.00685756       0.01720061
H        0.04358794       3.17742935      -1.20582929      -0.03664086      -0.01673678      -0.01847149
H       -1.17701516       2.13529164      -0.97931923       0.01696507       0.01257716      -0.00475305
