13
Properties=species:S:1:pos:R:3:forces:R:3 Coordinates=T from=T ORCA-job=T run=T Energy:=T 34.7318345=T energy=-91791.12635003471 pbc="F F F"
C        0.10994925      -0.07757519      -0.20101878      -0.00588534       0.00348089       0.00591309
H        1.61895842       1.35231221      -0.42689161      -0.00170861       0.00695613       0.02096027
Br      -1.82057147      -0.33263205       0.19238360      -0.03057192      -0.03750031      -0.00550408
Cl       3.21127397       0.31609641       1.50469447       0.00211208      -0.00976290       0.01561340
C        0.55731115       1.36766218      -0.12340197      -0.00711375      -0.00807500      -0.00263475
H        0.26638324      -0.49879569      -1.18825995       0.00209271       0.03414681      -0.00200963
H        0.66422302      -0.63451557       0.55066707       0.00242037      -0.00299394      -0.00611662
N        0.34094933       1.95218112       1.17228313       0.01636090      -0.00311371      -0.02145892
H        0.52186801       2.94905715       1.11532941       0.01756599       0.00511196      -0.02626742
H        1.08052525       1.54989245       1.75761159       0.00359762       0.02137370      -0.01293270
N       -0.10694918       2.21173171      -1.21733696      -0.00794584      -0.01895869       0.01976266
O       -0.38036565       3.37390847      -0.95767006       0.00006816       0.00624532       0.01711310
O       -0.25161670       1.69317991      -2.31579844       0.00635180      -0.00355574      -0.00125753
