13
Properties=species:S:1:pos:R:3:forces:R:3 Coordinates=T from=T ORCA-job=T run=T Energy:=T 38.8507178=T energy=-7897.2688620254485 pbc="F F F"
C        0.10459592       0.08554103      -0.16169072       0.00058888       0.00847346      -0.01514425
H        1.41911926       1.61959546      -0.82197165      -0.01164876      -0.01418216       0.00032755
F       -0.20103485      -0.34683981      -1.48459805       0.00724922       0.00886276       0.03887751
H        2.75125294       0.16996349       1.70413401       0.00825550       0.00482594       0.02941188
C        0.51603266       1.55131537      -0.18779316      -0.00092984      -0.01380802      -0.01206539
H        0.92435032      -0.52419218       0.23285347      -0.02421702       0.00720256      -0.02143132
H       -0.80408526      -0.04192324       0.43779131       0.02151690      -0.01268112      -0.01475770
N        0.73872910       1.94654576       1.18930520      -0.00706377       0.00158152      -0.02999213
H        1.13774231       2.88446542       1.16592442       0.01087517      -0.00010534       0.04788068
H        1.50557050       1.31484281       1.55836549      -0.01365708       0.02221207      -0.04033984
N       -0.48677916       2.44579708      -0.79877958       0.01231667      -0.02402805       0.01170060
H       -1.30852369       2.41824358      -0.19608714       0.00848748       0.01067937       0.00781072
H       -0.76388271       2.04684218      -1.69407007      -0.00032841      -0.01519028       0.01208373
