12
Properties=species:S:1:pos:R:3:forces:R:3 Coordinates=T from=T ORCA-job=T run=T Energy:=T 200.9250166=T energy=-25468.673559924875 pbc="F F F"
C        0.78523073      -0.09474783       0.26276570       0.05472971       0.29399738       0.27982830
H        1.63483296       1.87948492       0.23369116      -0.01256708       0.00367012       0.07810541
Cl      -1.22330753       0.30833451      -2.32485620      -0.00665001       0.04769142       0.06460742
F        1.75087655      -0.42181139      -0.63435298       0.09154636      -0.22557789      -0.15399872
C        0.64695214       1.41472627       0.27287083      -0.12587650       0.06923360       0.09971082
H       -0.14912477      -0.57327133       0.03387545      -0.38444808      -0.29537306      -0.46827986
H        0.10940076       1.59151130      -0.67448639       0.05509310       0.08394707      -0.10238204
N        1.23377092      -0.73426526       1.57963005       0.00658890      -0.10093509      -0.00615885
O        1.63015001      -0.01493382       2.47794827       0.19702490       0.16857094       0.25816425
O        1.15800687      -1.95247385       1.61877203       0.05414009       0.03629945       0.02388781
C       -0.15074539       1.98844649       1.35307590      -0.00624590      -0.00821265      -0.12485665
N       -0.81221510       2.50108623       2.14684604       0.06940189      -0.06382273       0.03518845
