16
Properties=species:S:1:pos:R:3:forces:R:3 Coordinates=T from=T ORCA-job=T run=T Energy:=T 56.2098379=T energy=-35339.25452560683 pbc="F F F"
C        0.91157203      -0.01299807       0.09330745      -0.01173164       0.01954587       0.00746577
H        1.71751269       1.91693006       0.49228950      -0.02542239       0.01461137      -0.03756391
Cl      -2.41433629       0.12635963      -1.19863088       0.02148668       0.00276082      -0.00094557
Cl       2.26460345      -0.49554500      -1.00810685       0.00092509      -0.03648302       0.00843393
C        0.74883900       1.50493353       0.18896563      -0.02156874       0.02219965      -0.00613141
H        0.00176306      -0.50272677      -0.25717473       0.00838360       0.00004567      -0.01049083
N        1.26318717      -0.63886050       1.44347808       0.04239301       0.00191974      -0.01033432
O        2.02051113      -0.02077726       2.17958708       0.00448877      -0.02259023       0.02865368
O        0.78159089      -1.73083491       1.68528269      -0.02333916      -0.00350978       0.03482792
C       -0.31570702       1.87732116       1.24382733      -0.00639998      -0.00029980       0.00062502
H       -1.27809919       1.42580897       0.99052245       0.01755969      -0.04169466      -0.01413273
H       -0.02101858       1.59524532       2.25911757      -0.01138748       0.00055378       0.00057853
H       -0.44883265       2.96442194       1.22506444       0.03375107       0.00056443       0.03325896
N        0.43220685       1.97322540      -1.15994520      -0.00853868       0.01574219      -0.01749826
H        0.34349836       2.98411864      -1.13968334      -0.00690285       0.02607400       0.01177254
H       -0.48592112       1.59650020      -1.42090823      -0.00112656       0.00069543      -0.02575292
