12
Properties=species:S:1:pos:R:3:forces:R:3 Coordinates=T from=T ORCA-job=T run=T Energy:=T 97.4695214=T energy=-92794.5411570388 pbc="F F F"
C        0.38291269      -0.08036693       0.16436928      -0.02728774       0.12121849      -0.10594389
H        1.69858840       1.51614371       0.61910021      -0.04315659       0.00272832      -0.00735378
Br      -1.38798274      -0.43321641      -0.61613626      -0.03851828      -0.08024490      -0.04497488
Cl       3.27850878       0.14497136      -1.33875004      -0.06736739      -0.01951198       0.01123544
C        0.65937377       1.40704749       0.29354909      -0.02122977       0.07869682       0.02547472
H        1.14977642      -0.50812901      -0.49800504       0.02070314       0.00724131       0.03912954
H        0.62847364       1.82389131      -0.71626577       0.04265527      -0.01282608       0.02771937
N        0.48159015      -0.81112620       1.49385728       0.07767874      -0.02802311      -0.01164810
O        0.80935396      -0.14374401       2.46232314       0.04266552      -0.05198973       0.10947278
O        0.28591458      -2.01169574       1.49056487      -0.03410764      -0.03261451      -0.00111107
C       -0.24669421       2.15303387       1.16764696       0.05878118      -0.02085902       0.00953445
N       -0.94085394       2.77229170       1.84890243      -0.01801349       0.03294590      -0.05802234
