14
Properties=species:S:1:pos:R:3:forces:R:3 Coordinates=T from=T ORCA-job=T run=T Energy:=T 22.7937709=T energy=-33833.588918739086 pbc="F F F"
C        0.21312339      -0.05433454       0.16192870       0.02587883       0.03465745       0.01097232
H        1.42507582       1.62390572       0.41084732       0.00347346      -0.01059517       0.02721652
Cl      -1.48675798      -0.57829932      -0.23955483      -0.00456922       0.00152072      -0.01408066
Cl       3.12666302      -0.03952250      -1.48253930      -0.00331824      -0.04670878      -0.01505431
C        0.38396422       1.44779242       0.13066901       0.00821662       0.02542424      -0.00137786
H        0.90276421      -0.55020063      -0.52982779      -0.00120737       0.01196815       0.02969078
H       -0.25490043       1.91797994       0.88391600      -0.02580077      -0.02637590      -0.00697067
N        0.51928557      -0.65304117       1.54894191       0.01975782       0.01247906      -0.02625847
O        0.81343686       0.11848805       2.44981543      -0.03188764      -0.01899223      -0.02419768
O        0.47029038      -1.86528422       1.64810418       0.02186246       0.02315432      -0.00016949
C        0.15831174       2.03844612      -1.26409442       0.00158852       0.00112018       0.00573003
H        0.85964551       1.58516739      -1.96839029      -0.02292533       0.00778037      -0.00284664
H       -0.86717105       1.88906075      -1.61489204       0.01761542      -0.00052994       0.00003205
H        0.35438867       3.11530095      -1.23976227      -0.01189309      -0.01251573      -0.00121795
