13
Properties=species:S:1:pos:R:3:forces:R:3 Coordinates=T from=T ORCA-job=T run=T Energy:=T 179.5080437=T energy=-95303.23949877323 pbc="F F F"
C        0.88548787      -0.07885364       0.10021327       0.00035376       0.00689991      -0.01058103
H        1.77890147       1.89172441       0.19416189      -0.02590676      -0.00335566       0.01081879
Br      -2.33406112      -0.25587677      -0.51021171       0.00354448      -0.00980082       0.00007491
Cl       2.41074209      -0.57293939      -0.80727868       0.00817068      -0.00236382      -0.00826190
C        0.77374162       1.46162655       0.12677487      -0.01971186       0.00723369      -0.01458660
H       -0.00672174      -0.48358265      -0.41824634       0.00838477      -0.01394383       0.01582328
C        0.99557601      -0.64339714       1.43620669      -0.00122002       0.01280868      -0.01271636
N        1.12962719      -1.10981190       2.48187387      -0.01176668      -0.00495816       0.01590578
C       -0.01854502       2.00856490       1.22140073       0.02283890      -0.01471223      -0.01337392
N       -0.52311372       2.49077601       2.13714614      -0.00778144       0.01681060       0.03087756
N        0.25412397       2.02697100      -1.22786670       0.01634236      -0.00713114      -0.01236941
O       -0.22109233       3.14418526      -1.18130068       0.00961748       0.01481354       0.00807695
O        0.48047597       1.37148907      -2.21892557      -0.00638838      -0.00064950      -0.00879926
