14
Properties=species:S:1:pos:R:3:forces:R:3 Coordinates=T from=T ORCA-job=T run=T Energy:=T 51.9286321=T energy=-90809.06556341723 pbc="F F F"
C        0.24563101      -0.11867428       0.09946361      -0.00867224      -0.02956742       0.00511531
H        1.60704122       1.44113054       0.05873327       0.00655181       0.01580132       0.00051257
Br      -1.70827782      -0.56853665      -0.21905441       0.00703802       0.00797624      -0.00999813
Cl       3.36009877      -0.13899061      -0.68028895      -0.01194611       0.01672299      -0.01097538
C        0.50421442       1.40478833       0.07412142       0.00261982      -0.01544186       0.00592218
H        0.79950620      -0.59665655      -0.70770245       0.01438326       0.00023790       0.01670469
C        0.60199707      -0.72327618       1.37282073      -0.01531167      -0.01363804       0.00382130
N        0.81268248      -1.18856191       2.40731895      -0.00251141       0.01287427      -0.01596912
C       -0.06213692       2.16976158       1.28110701       0.00381904       0.00072932      -0.01367679
H       -1.15120100       2.08852510       1.32447181       0.01850578       0.01668654       0.02115646
H        0.35898118       1.76921611       2.20580536      -0.01815234       0.01068966      -0.02135859
H        0.20361895       3.22683525       1.21358588      -0.00253263      -0.00969552      -0.00352103
C        0.04945233       2.00588277      -1.18176841       0.01467037      -0.01029814       0.01045315
N       -0.30506811       2.54097354      -2.14008361      -0.00768998      -0.00223065       0.00985876
