14
Properties=species:S:1:pos:R:3:forces:R:3 Coordinates=T from=T ORCA-job=T run=T Energy:=T 104.1093565=T energy=-23483.21584841867 pbc="F F F"
C        0.90232723       0.00217024       0.05782992       0.05791997       0.00190490      -0.01262290
H        1.85042287       1.89491899       0.39754309       0.02722029      -0.01397394       0.03838691
Cl      -2.34173283      -0.68010071      -0.25177697      -0.00963401       0.01630865       0.02876664
F        1.83882626      -0.38118002      -0.90830918       0.07578329      -0.00256559      -0.04401444
C        0.84769225       1.54205537       0.12648175       0.02283182       0.03188387       0.00676972
H       -0.08991958      -0.41241617      -0.20488390      -0.01480883       0.03344982       0.03416563
C        1.34938406      -0.53965687       1.34977251       0.01186625      -0.11910805       0.05257324
N        1.70967810      -0.96380546       2.36072213      -0.00844792       0.05926467      -0.09752836
C       -0.16962909       1.99690318       1.19217007      -0.03346252       0.01995088       0.00763278
H       -1.09989740       1.43481667       1.08012620      -0.04597843       0.03622450      -0.04251281
H        0.24280106       1.81343800       2.18746626      -0.04773898      -0.01021492      -0.01119628
H       -0.37971286       3.06307733       1.09510660       0.01435985       0.02750589       0.00863311
C        0.58903455       2.13856319      -1.19065961      -0.00296502      -0.03539974       0.02507155
N        0.46294057       2.70196890      -2.18884609      -0.03476488      -0.04600679       0.01681250
