15
Properties=species:S:1:pos:R:3:forces:R:3 Coordinates=T from=T ORCA-job=T run=T Energy:=T 35.4148755=T energy=-14029.588412968813 pbc="F F F"
C        0.12389381      -0.15681174       0.22060632       0.05862228       0.24662703       0.37960618
H        2.06316415       1.30607268      -0.47336880       1.53374551      -0.41715652      -0.54672063
F       -1.14207891      -0.62745782      -0.37688967       0.50723197       0.19497943      -0.08579618
H        2.79256313       1.12878080      -0.84622722      -0.91038465       0.31325313       0.45661364
C        0.33680078       1.31150728       0.06658846      -0.43960684      -0.24468764       0.76570627
H        0.92204263      -0.71757724      -0.32168801      -0.62623824       0.11282245      -0.01322426
C        0.04697905      -0.72166601       1.59659607       0.07537465       0.52125954      -0.90263001
N       -0.13492357      -1.39260818       2.51214902       0.06915483      -0.45503590       0.50892446
N        0.29003404       2.12492198       1.19827262       0.18856034      -0.25037246       0.32283604
O        0.42616669       3.35227838       1.06796768      -0.08357674       1.07984601      -0.63927635
O        0.22114483       1.66197686       2.36730006      -0.02833285      -0.72526282      -0.15094200
C       -0.07587605       1.94349029      -1.23487371      -0.44548685      -0.40039024       0.18497716
H        0.34912733       1.45714783      -2.10530588       0.61702938      -0.16959901      -0.26064964
H       -1.13340506       1.73797116      -1.34428922      -0.65854804       0.34788273      -0.21677388
H        0.10129408       3.01690579      -1.28357226       0.12986970      -0.15104967       0.20273422
