15
Properties=species:S:1:pos:R:3:forces:R:3 Coordinates=T from=T ORCA-job=T run=T Energy:=T 161.8771913=T energy=-36342.86378019338 pbc="F F F"
C        0.89319781      -0.02259704       0.08046103       0.01171982       0.03388282       0.04992787
H        1.79849981       1.94816049       0.30126105      -0.01890723      -0.03541999      -0.00412176
Cl      -2.39683637      -0.44723931      -0.14812036       0.00855833      -0.03965107       0.02965313
Cl       2.26942798      -0.58632794      -1.01089009      -0.04706785       0.03301032       0.00080789
C        0.81050784       1.51235224       0.13358496      -0.01739742      -0.03087067       0.11864964
H       -0.06359457      -0.43117689      -0.29830050       0.05111596      -0.00362920      -0.02874741
C        1.17934004      -0.57429567       1.40304314      -0.00528657       0.06915307      -0.10633603
N        1.44268618      -1.00419366       2.44045702      -0.02516718       0.02459524      -0.00084523
C       -0.19190756       2.00040548       1.18829261      -0.00851530      -0.00746577      -0.01452499
H       -1.12841885       1.44025082       1.09246124       0.01375968       0.09218734      -0.02296428
H        0.21708191       1.84997407       2.19187399       0.01005982      -0.03034921      -0.09231384
H       -0.36800036       3.06724548       1.04329124      -0.00023987      -0.03013008       0.01001500
N        0.41411287       2.09447831      -1.23781858       0.05749767      -0.06378718       0.01771791
O        0.41905978       3.31996499      -1.29739355       0.00982761      -0.04105387       0.02188423
O        0.16326517       1.34553575      -2.15609090      -0.02992479       0.03947419       0.02174728
