15
Properties=species:S:1:pos:R:3:forces:R:3 Coordinates=T from=T ORCA-job=T run=T Energy:=T 55.0643680=T energy=-89805.34020719252 pbc="F F F"
C        1.01328775       0.02250836       0.14183853      -0.11405167      -0.21795832       0.07281577
H        1.78203290       2.02779232       0.22162534       0.10319186      -0.01763210       0.10479365
Cl      -2.45400550       0.07880193      -0.90922215       0.01899185      -0.07964343       0.00845806
Br       2.71702985      -0.50019550      -0.80078147      -0.03874976       0.03570896      -0.02441482
C        0.79937335       1.55459032       0.13235301       0.05058288      -0.00148484      -0.10015463
H        0.22413570      -0.47069131      -0.43379293      -0.05481809       0.10388248       0.01051176
C        1.05720637      -0.58737580       1.46203282       0.04497778       0.07053911       0.03391385
N        1.05688803      -1.05727450       2.51642634       0.07873859      -0.00353115      -0.04182488
C       -0.05379510       2.02121505       1.32393422      -0.00811315       0.02793464       0.06805143
H       -1.01277192       1.49603238       1.36134739       0.02157944       0.12314701      -0.07552855
H        0.47422448       1.88864732       2.27319553      -0.03814450      -0.03995626       0.05178124
H       -0.22857224       3.09622299       1.19367507      -0.12590865      -0.07354949       0.06139984
N        0.26523434       1.90633535      -1.17609831      -0.00008880       0.01198360      -0.24871465
H       -0.00458837       2.88633024      -1.16320414       0.06714394      -0.00516066      -0.04651720
H       -0.60352515       1.38134008      -1.34206942      -0.00867555       0.07313617       0.12077455
