14
Properties=species:S:1:pos:R:3:forces:R:3 Coordinates=T from=T ORCA-job=T run=T Energy:=T 141.2193377=T energy=-33288.29034169955 pbc="F F F"
C        0.74731496      -0.04248606       0.18628157      -0.00497344       0.00760326       0.00476750
H        1.82210114       1.82523591       0.25368943      -0.00183877       0.00106340       0.02389334
Cl      -2.26559752      -0.52888229      -1.07881502      -0.00021142      -0.02329915       0.00627614
Cl       1.96327280      -0.68852830      -1.03050950      -0.00807960       0.00622763      -0.00872776
C        0.77707314       1.51166867       0.14154106       0.00380114      -0.00259135       0.00276132
H       -0.24657180      -0.41007044      -0.15285772       0.00482670       0.01479779       0.00272422
C        1.10991004      -0.58501030       1.48605031      -0.00199876       0.00961440      -0.04023410
N        1.40337746      -1.01086445       2.51712831       0.00117230      -0.01346734       0.03363498
C        0.05763786       2.08051884       1.28961305      -0.00192294       0.02169782      -0.00258758
N       -0.46446335       2.58783904       2.18399007       0.00389687      -0.00763687      -0.02502603
C        0.20919206       2.06141061      -1.18218380       0.00253804      -0.00724124       0.01197291
H        0.85262504       1.75948991      -2.01009176      -0.01009514       0.00187157       0.00149463
H       -0.79126225       1.65815372      -1.35450145      -0.00382428       0.01397125      -0.00398735
H        0.17263377       3.15330187      -1.14766421       0.01031567      -0.01037791       0.00310239
