13
Properties=species:S:1:pos:R:3:forces:R:3 Coordinates=T from=T ORCA-job=T run=T Energy:=T 151.0527874=T energy=-15471.197645763834 pbc="F F F"
C        0.75252109      -0.15034926       0.13595311       0.48893214       0.20534138       0.11288746
H        1.73006487       1.77937985       0.67189574       0.00471247      -0.04909633      -0.08896882
F       -1.58314342       0.27593536      -0.54550266      -0.12914433      -0.12856354       0.00625852
H        1.17167023      -0.50498968      -0.81411977      -0.14890465       0.07640282       0.10779122
C        0.82676022       1.36898373       0.19625980      -0.01320429      -0.00514278       0.02894848
H       -0.65920302      -0.15436835      -0.15352674      -0.30139131      -0.00341491      -0.06903755
C        1.38204628      -0.81108307       1.23293693       0.18485898      -0.19385555      -0.03583602
N        1.90761906      -1.39958364       2.08867849      -0.15922812       0.11753262      -0.07068127
N       -0.26120605       1.99141609       1.14664118       0.03437287      -0.08331113       0.31588756
O       -0.63497088       3.13342520       0.92814294       0.05309934      -0.17469190      -0.02540269
O       -0.53227377       1.32463785       2.12360793      -0.16454321       0.11985150       0.01594698
C        0.65606491       1.98899819      -1.10675618       0.07126379       0.11983652      -0.19295762
N        0.57026482       2.48865337      -2.14090514       0.10275970       0.00834834      -0.10152670
