14
Properties=species:S:1:pos:R:3:forces:R:3 Coordinates=T from=T ORCA-job=T run=T Energy:=T 68.4595158=T energy=-20212.959885080043 pbc="F F F"
C        0.61361743       0.12889562      -0.06871210       0.01802991       0.00942015       0.00662070
H        1.67816309       1.90692376      -0.09705595       0.00288329       0.01126782       0.00019634
Cl      -1.23029050      -0.50009886      -0.08795762       0.01712612       0.00733438      -0.01690650
H        1.40143226      -1.65460692       0.92437004       0.01634059      -0.03035035       0.03000058
C        0.61193638       1.65595817      -0.04751455      -0.00093998       0.02180240      -0.00836236
H        0.94643688      -0.24561690      -1.04259625      -0.02036717       0.00314236       0.00357106
C        1.38650997      -0.53152570       1.10264201       0.01906008      -0.01505991      -0.00596650
N        1.93822508       0.08014563       2.03260150      -0.02919865      -0.00771150      -0.02392293
N        0.12579368       2.24161480       1.20458777       0.00008487       0.03571124       0.01284439
H        0.75992403       1.82452002       1.90489477      -0.01464705      -0.03362154      -0.00271169
H       -0.78774539       1.82747575       1.39333794       0.00527630       0.02357582       0.02664898
N       -0.02367641       2.22070871      -1.24235017      -0.00844016      -0.00526280      -0.03062481
H       -0.11432782       3.21978843      -1.06423561       0.00896435      -0.00914489       0.01166244
H       -0.97558701       1.86394203      -1.29002142      -0.01792329      -0.01416906       0.00172698
