14
Properties=species:S:1:pos:R:3:forces:R:3 Coordinates=T from=T ORCA-job=T run=T Energy:=T 36.6270338=T energy=-23482.14908895496 pbc="F F F"
C        0.26398504      -0.08420842       0.24498471       0.00642718       0.02688806       0.00330700
H        1.58547459       1.51423131       0.39819418       0.01604778       0.00847957       0.00740745
Cl      -1.49176879      -0.50655027      -0.14288609      -0.00647804      -0.01395816       0.00927630
F        1.90879816      -0.30023893      -1.66816121      -0.01085324      -0.01148145      -0.01143866
C        0.50575581       1.43920752       0.22565912       0.01207595       0.02213194       0.00546345
H        0.98374397      -0.42760949      -0.67353606      -0.00218626       0.00196903      -0.01192468
C        0.62559108      -0.70915876       1.49050518      -0.01054758      -0.02203815      -0.02912121
N        0.97814062      -1.23461696       2.45966835       0.00382171      -0.00549981       0.03155528
C       -0.16995781       2.18456673       1.29616483      -0.02455399       0.00004567      -0.01778796
N       -0.69290602       2.79652505       2.12393923      -0.00070811      -0.00338458      -0.01392985
C        0.24042339       2.04236934      -1.16714746       0.00505296      -0.00494998       0.00073531
H        0.81562353       1.42269877      -1.86006969       0.01461849      -0.00607430      -0.01133009
H       -0.82065523       2.01251364      -1.42132709      -0.01023801      -0.00274225       0.02406227
H        0.57972644       3.08155469      -1.20278374       0.00434925      -0.00256612       0.00206584
