12
Properties=species:S:1:pos:R:3:forces:R:3 Coordinates=T from=T ORCA-job=T run=T Energy:=T 58.9314433=T energy=-21410.21670180145 pbc="F F F"
C        1.09658714      -0.00104959       0.04189856       0.08325818      -0.10302414      -0.19637422
H        1.68742119       2.02141627       0.38467973      -0.08316315      -0.03729004       0.09790848
Cl      -2.34632770       0.17222962      -0.37796338      -0.03619490      -0.00676729      -0.05782224
F        2.41809454      -0.21477380      -0.41803976      -0.06319823       0.15136312       0.02217862
C        0.76646699       1.48857835       0.11349310      -0.05415062       0.11325949      -0.17915542
H        0.42794159      -0.46845275      -0.68270727      -0.09635797      -0.10870215       0.14487097
H        0.00469721       1.63668109       0.88778461       0.07111799      -0.04333109       0.12860339
C        0.98985157      -0.68770353       1.33545579      -0.01321880      -0.01923431       0.00943456
N        0.94831006      -1.24239819       2.34445914       0.05772959       0.00779711       0.06214593
N        0.30921462       1.93253519      -1.20661951      -0.04624871       0.06449496      -0.11140472
H        0.09628565       2.92640577      -1.15429350       0.12582438       0.02764341       0.02273019
H       -0.60894422       1.48979056      -1.34348116       0.07682725      -0.03314715       0.06007007
