14
Properties=species:S:1:pos:R:3:forces:R:3 Coordinates=T from=T ORCA-job=T run=T Energy:=T 60.8979366=T energy=-10974.776220172938 pbc="F F F"
C        0.35582113      -0.06354703      -0.02158113      -0.01019561      -0.00349625       0.00965672
H        1.60194804       1.65129122      -0.02744409      -0.02694206      -0.02178058      -0.00652619
F       -0.98856977      -0.36401453       0.22994505      -0.01824419      -0.00739176      -0.01682481
H        2.39197532      -0.52575397       0.56102236       0.01214805      -0.00112513      -0.01380184
C        0.51300175       1.47633025      -0.03136169      -0.01772096      -0.02289099      -0.01322701
H        0.58469454      -0.45266563      -1.02515231       0.01102836      -0.03034288       0.02435094
C        1.32892137      -0.69848189       1.03352482       0.01491687       0.04453740       0.00513300
N        1.05680851      -1.21542395       2.11092384      -0.02160255       0.03634061      -0.00832664
C       -0.11730829       2.11352293       1.22258684       0.00132871      -0.00393381       0.00404403
H       -1.20586073       2.09759946       1.15497299      -0.00174484      -0.02877041       0.00154250
H        0.17695754       1.52933876       2.09583686       0.02628493      -0.00995499      -0.00228166
H        0.20725662       3.15091391       1.34448958       0.00586163       0.01156812       0.00113252
C       -0.02303918       2.07684767      -1.25428859      -0.01584719       0.03255816      -0.01316553
N       -0.46806665       2.53291903      -2.22046231       0.03595819       0.01969210       0.02572615
