15
Properties=species:S:1:pos:R:3:forces:R:3 Coordinates=T from=T ORCA-job=T run=T Energy:=T 34.7926170=T energy=-22478.359740462827 pbc="F F F"
C        0.51610846      -0.09806902       0.05525465       0.00493436       0.03720188      -0.00889188
H        1.45322069       1.45548365      -0.99738064       0.00220491       0.00314159      -0.03974104
Cl       0.27529258      -1.06412841      -1.51176598      -0.01161787       0.00618807       0.02912154
F        3.01280523       0.18894502       0.86758213      -0.00933939      -0.00739899       0.03783876
C        0.65400543       1.41157875      -0.24355795       0.00441652       0.03364103       0.00595832
H        1.54938778      -0.35074831       0.45540141      -0.00138828      -0.03245906      -0.01776840
C       -0.56096890      -0.43081356       0.96671130       0.00923161       0.00538736       0.01684955
N       -1.40881337      -0.70671645       1.70288265       0.01017893      -0.02104782      -0.04367910
N        1.07276784       1.98415316       1.03613210       0.00176196       0.01491511       0.04376409
H        1.26939463       2.97348017       0.90549695       0.00868547       0.00765226      -0.02831948
H        1.96858653       1.48928631       1.23674609       0.02158477      -0.00621718      -0.00072265
C       -0.60551718       2.08731384      -0.77443698      -0.03474000       0.00480444      -0.00103499
H       -0.93236799       1.65171163      -1.72201564      -0.00482981      -0.02835661      -0.01747905
H       -1.41799450       2.00492562      -0.04848095      -0.03143085       0.00235031       0.02799479
H       -0.42161964       3.15486303      -0.94598074       0.03055087      -0.00253210       0.00017303
