14
Properties=species:S:1:pos:R:3:forces:R:3 Coordinates=T from=T ORCA-job=T run=T Energy:=T 61.9107405=T energy=-33288.32337405672 pbc="F F F"
C        0.21192488      -0.13003013       0.07567504      -0.00985896      -0.02953744       0.00555447
H        1.59931544       1.41164609       0.03901089       0.01441677       0.00983680      -0.00632136
Cl      -1.56447394      -0.51381079      -0.28975243       0.00442166      -0.00350648      -0.00126366
Cl       3.40899647      -0.00597930      -0.58296271       0.00702118      -0.00985497      -0.01387338
C        0.49465278       1.38955986       0.06665872       0.01179472      -0.00773550      -0.00103132
H        0.80887967      -0.60057481      -0.70623228      -0.01239923       0.00356172       0.00945489
C        0.52258018      -0.74740312       1.35878319       0.02919150       0.01651892       0.00134900
N        0.70579779      -1.22457990       2.39195416      -0.01321304      -0.01304604       0.01434166
C       -0.04165397       2.15663946       1.28461986      -0.00666551      -0.00392791      -0.00059320
H       -1.12626138       2.05904124       1.37891576       0.00503240       0.00925591      -0.00211965
H        0.42720337       1.77842367       2.19532275      -0.02008183       0.00742856      -0.01032866
H        0.20200957       3.21692862       1.18889731      -0.00609733      -0.01293009       0.02113041
C        0.02959198       2.00015278      -1.17829110       0.00262772       0.02953115      -0.00204660
N       -0.33830063       2.54374403      -2.12658666      -0.00705938       0.00349878      -0.02196001
