13
Properties=species:S:1:pos:R:3:forces:R:3 Coordinates=T from=T ORCA-job=T run=T Energy:=T 72.5237743=T energy=-27977.6257199722 pbc="F F F"
C        0.00072376      -0.06854942       0.09733237       0.01368627       0.01672925      -0.00106335
H        2.20760677       1.00708447      -0.01206295       0.00794212       0.03133071      -0.00574019
Cl      -1.93500749      -0.62669780       0.02140596      -0.03936382       0.01919248      -0.01803837
F        3.05438199       0.64843176      -0.22209600      -0.03271037       0.00328121       0.01235564
C        0.22464642       1.35904748       0.08861808       0.00414244      -0.01933292      -0.00337153
H        0.33021211      -0.51878159      -0.83282955       0.01128395      -0.00461727       0.00905655
C        0.48879781      -0.77849881       1.26218917       0.00123199       0.01713021       0.00089239
N        0.88646938      -1.35465961       2.17833602       0.03063917      -0.01147075       0.00695126
C        0.03374497       2.17128485       1.23011784      -0.01784339      -0.00479732       0.02439624
N       -0.08981143       2.79706844       2.19790598       0.00873226      -0.00595512      -0.01395340
N        0.11960276       2.01075269      -1.18529214       0.01972991      -0.02764766      -0.00817393
O        0.05564136       3.24294772      -1.20837247       0.02134858      -0.00377066       0.01846323
O        0.13847715       1.30746058      -2.20459010      -0.01843097      -0.00688790      -0.01253917
