12
Properties=species:S:1:pos:R:3:forces:R:3 Coordinates=T from=T ORCA-job=T run=T Energy:=T 52.8158021=T energy=-21410.304064299773 pbc="F F F"
C        0.13506438      -0.11804342       0.17520492       0.01753921      -0.01004175       0.01681039
H        1.20369512       1.64219662       0.67952390      -0.02059984      -0.00640422      -0.01901816
F       -1.15762671      -0.54055485      -0.17033195       0.02073450       0.00374511      -0.00783738
Cl       3.04628755       0.65171323      -1.62769229       0.01566727      -0.00688797      -0.03454769
C        0.22440639       1.40653603       0.23500657      -0.00836942      -0.01688620       0.00134233
H        0.84019508      -0.48743926      -0.57712493       0.00036635       0.02770352      -0.00582118
H       -0.55818450       1.76953224       0.91290409      -0.01308793      -0.00355924      -0.03353546
C        0.44781867      -0.72005315       1.48123686      -0.00011062       0.00849129       0.03051490
N        0.66380883      -1.17518749       2.51807281       0.00153506      -0.03125357       0.03170819
N        0.03025162       1.95815100      -1.10286137       0.01133033       0.01407954       0.01760189
H        0.88206814       1.73471575      -1.62903555      -0.00502635      -0.00997817       0.01001794
H        0.00479293       2.97123764      -1.02807816      -0.00172145       0.01595167      -0.00340443
