16
Properties=species:S:1:pos:R:3:forces:R:3 Coordinates=T from=T ORCA-job=T run=T Energy:=T 55.2320113=T energy=-79563.41767978479 pbc="F F F"
C        0.28704785      -0.05288834       0.00295440       0.02133389       0.01637185       0.01770351
H        2.29297249       1.11319281       0.05983469       0.01536717       0.01261168       0.01379087
Br      -2.64606493      -1.07014308       0.23342369       0.01430738      -0.02768510      -0.00568912
F        3.17923825       1.21728021       0.36497282      -0.02946945      -0.02274847      -0.00216228
C        0.24297195       1.30558639      -0.01947999       0.01679435      -0.01022127      -0.03861060
H        0.23563197      -0.58003005      -0.94434539      -0.01355034       0.03598002       0.05691860
C        0.57368057      -0.87170096       1.22626690      -0.01562415      -0.01045176      -0.00610062
H        1.65092823      -0.84291702       1.45157705      -0.02762954       0.01915971       0.01382256
H        0.02128869      -0.50736299       2.09228832       0.03244061      -0.00603409       0.01303563
H        0.26904046      -1.90295691       1.06584140      -0.00654321      -0.01768532      -0.00618125
C        0.15519152       2.17014454       1.22295435       0.00443199      -0.02790012      -0.00301144
H       -0.88233724       2.18893039       1.57468797       0.00140744       0.00223044       0.02294638
H        0.78101749       1.77493069       2.02346318       0.01138775       0.00300241       0.03375893
H        0.47082507       3.19779104       1.02811965       0.00996553      -0.03561678      -0.03983933
C        0.05260134       1.97048194      -1.26762334      -0.03554069       0.06564877      -0.08008506
N       -0.06889528       2.55254679      -2.26185017       0.01044218       0.01018456       0.00512436
