16
Properties=species:S:1:pos:R:3:forces:R:3 Coordinates=T from=T ORCA-job=T run=T Energy:=T 91.4171450=T energy=-22043.196075620548 pbc="F F F"
C        0.65211920      -0.06517589       0.08010426      -0.02958091       0.01230321       0.00503944
H        1.88652156       1.65550850       0.13497263       0.01077511       0.05592061       0.01144351
Cl      -2.73470489      -0.46863079      -0.55899686      -0.00598908       0.02148067      -0.03947750
F        1.61652393      -0.51656385      -0.86675181      -0.03932660      -0.03204536       0.02307426
C        0.80469026       1.47376406       0.07116124       0.01291934      -0.04435746      -0.01435145
H       -0.34134775      -0.34981227      -0.28949267       0.06931608       0.01125427       0.00008864
C        0.94356645      -0.72963805       1.40820318       0.00723793       0.01790229      -0.01792470
H        1.89390756      -0.39040958       1.83837372      -0.02985496      -0.01013224       0.00079363
H        0.13198351      -0.52340449       2.10962384       0.04423255       0.02233651       0.00972980
H        0.99074320      -1.81029050       1.26458491       0.00556174      -0.04149628      -0.01892131
C        0.22834980       2.11810626       1.25363165       0.02190045      -0.01541299       0.02398683
N       -0.15157311       2.65993273       2.19866534      -0.03088402       0.02685731      -0.00453129
C        0.26586508       2.08354919      -1.23614021      -0.00039154      -0.00381133      -0.01981606
H        0.85287404       1.69315711      -2.06774945      -0.01006893      -0.05600969      -0.05260881
H       -0.77845812       1.80223283      -1.38402230      -0.02562356      -0.01588281       0.04853982
H        0.35364239       3.17253951      -1.23714600       0.00536139       0.03344938       0.03295067
