14
Properties=species:S:1:pos:R:3:forces:R:3 Coordinates=T from=T ORCA-job=T run=T Energy:=T 21.7588879=T energy=-77489.35911482795 pbc="F F F"
C        1.03408912       0.04708254       0.06855317      -0.02942986      -0.05302712       0.00503120
H        1.60017601       2.14019994       0.29047755      -0.02588447      -0.04683999       0.02532255
F       -1.51964159      -0.01915099      -0.60107068      -0.00136473      -0.00945439       0.04275649
Br       3.04743143      -0.24358844      -0.39357824       0.00797825       0.00200120       0.03005537
C        0.70933591       1.54164322       0.05882340       0.00196191      -0.02387166       0.00639165
H        0.50877008      -0.43546976      -0.74726713       0.02480065       0.03567143      -0.06537734
H       -0.01603846       1.69184774       0.87815618       0.02308344      -0.01231474      -0.02464401
C        0.71436012      -0.67974379       1.35627733      -0.01486421       0.00410884       0.01988166
H        1.08576008      -1.70823683       1.34579123      -0.01827120       0.02159495      -0.00707583
H        1.10202325      -0.17885908       2.25014630       0.02796324       0.03315853      -0.01598089
H       -0.38110694      -0.69784788       1.37214799       0.01407670       0.03188605      -0.03175627
N        0.16266114       1.90824081      -1.24821855      -0.00675059       0.00425231      -0.00520481
H       -0.14171497       2.87879089      -1.20350209      -0.03051573       0.02824458      -0.00546689
H       -0.69032406       1.30416124      -1.28469615       0.03505872      -0.01537074       0.02542185
