12
Properties=species:S:1:pos:R:3:forces:R:3 Coordinates=T from=T ORCA-job=T run=T Energy:=T 0.8548848=T energy=-143311.30346667333 pbc="F F F"
C        0.97202997      -0.06319795       0.01626413       0.01033360      -0.01820630      -0.03053728
H        1.66205667       1.85549750       0.76165325      -0.00732316       0.00663127       0.00284700
Br      -2.65267762       0.08302232       0.03238250      -0.00553806       0.01411477       0.01462570
Br       2.76520753      -0.63275694      -0.81602830       0.00999292      -0.00050474      -0.00195425
C        0.91820246       1.44592458       0.07082905      -0.01875159       0.02744971      -0.01495790
H        0.24138471      -0.44455050      -0.69128120      -0.00162367      -0.01995063      -0.03459191
H       -0.09058292       1.71009658       0.40392823      -0.01591406       0.00802335       0.02579412
H        1.06620757       1.88940145      -0.91517398       0.02947294       0.01162139      -0.01275366
C        0.81535835      -0.74418437       1.35589661      -0.01906576      -0.02701197       0.01576646
H        1.55507980      -0.39146778       2.08163155      -0.00658664      -0.00114282       0.00715228
H       -0.19619580      -0.51379510       1.70564000      -0.01254240       0.01909566       0.01936315
H        0.89241901      -1.82897136       1.26727969       0.03189353      -0.02127403       0.00258296
