14
Properties=species:S:1:pos:R:3:forces:R:3 Coordinates=T from=T ORCA-job=T run=T Energy:=T 63.5074728=T energy=-81003.79510715869 pbc="F F F"
C        0.12644875      -0.03844752       0.09994892      -0.01776234       0.01076129       0.01025828
H        2.22758003       0.99672526      -0.14489274       0.01058993       0.01930915       0.00555006
Br      -2.20360783      -0.80983414      -0.06979531       0.00863043       0.00060369      -0.01593383
F        3.10315886       0.65592738      -0.23519034      -0.00194997       0.00398796       0.01137568
C        0.23376041       1.37066934       0.05372008       0.01037258       0.01019449       0.00125259
H        0.33550732      -0.53412412      -0.83912150      -0.02007755      -0.01964120       0.02545844
C        0.53298785      -0.78588062       1.34363671      -0.00197331       0.01178035      -0.00592189
H        1.62141355      -0.70586749       1.46181830      -0.00350868      -0.01524100      -0.03359623
H        0.06619120      -0.36683750       2.23609638      -0.02213785       0.00824457      -0.01684526
H        0.25619914      -1.83631760       1.27025199       0.02336430       0.01243551       0.00028285
C        0.15057971       2.15422369       1.23884425       0.02545632      -0.01846435       0.00854941
N        0.11395788       2.78210145       2.21324423       0.00175515       0.01287726       0.00515312
C        0.13334714       2.06764554      -1.18348669       0.00582256      -0.03189894      -0.00818030
N        0.09360297       2.63332273      -2.19489338      -0.01293285       0.00374472       0.00368038
