16
Properties=species:S:1:pos:R:3:forces:R:3 Coordinates=T from=T ORCA-job=T run=T Energy:=T 53.2632236=T energy=-21474.624045960136 pbc="F F F"
C        0.51585033      -0.00889258      -0.03650496       0.01683118       0.04537519       0.00667837
H        1.05507989       1.67111597      -1.23148632       0.01893331      -0.00773938      -0.01298133
Cl      -0.42636558      -0.76069347      -1.48997292       0.00186467      -0.01242357      -0.00421913
F        3.03105432       0.04383849       1.02160796      -0.02251833      -0.01962044       0.00392363
C        0.58372635       1.52327047      -0.24482250       0.01438731       0.03634365      -0.00456367
H        1.54276963      -0.38697352      -0.08072984      -0.01153893      -0.00607170      -0.00635798
C       -0.11788634      -0.46003535       1.25837806       0.00852465      -0.01235467       0.01120860
H        0.54228882      -0.10074290       2.04789862       0.03439251      -0.01151817       0.01740748
H       -1.12850687      -0.06564428       1.40810778      -0.00679598       0.01864040      -0.02242984
H       -0.15475749      -1.54976960       1.31151380      -0.01331683      -0.04489737       0.00117684
N        1.36343180       2.04742458       0.86265073      -0.01539014       0.01648186       0.01997663
H        1.72253719       2.96067265       0.59794071      -0.02489777      -0.00147459      -0.01514680
H        2.17231823       1.37741986       1.01966418      -0.02275838      -0.00030395      -0.02166538
N       -0.69711951       2.24859385      -0.30357688       0.00118056      -0.00975911       0.00665121
H       -1.13010993       2.17343770       0.61390356       0.01797076       0.03694724       0.00823045
H       -1.31414318       1.79441511      -0.97393474       0.00408580      -0.02517707       0.01298404
