18
Properties=species:S:1:pos:R:3:forces:R:3 Coordinates=T from=T ORCA-job=T run=T Energy:=T 14.8389874=T energy=-78121.81693907797 pbc="F F F"
C        1.04209759      -0.08190507      -0.09249182      -0.89893689      -0.48231557       0.78295377
H        1.79845277       1.60118073       0.20504861       1.39306781       1.66866089       0.18361892
Br      -3.38416777      -0.50347572       0.68571286       0.11634546       0.05977364      -0.00771727
F        2.58871185      -0.11678849      -0.69389028      -2.76639143      -0.14093570       1.56244175
C        0.76568750       1.43468556       0.07411084      -1.35641096      -0.55616337      -0.44864781
H        0.55407980      -0.59480375      -0.95633960       0.27375150       0.42361134       1.00158789
C        0.93860744      -0.80437341       1.34753684      -0.94066135      -0.19128809      -1.05059722
H        1.97324877      -0.69660936       1.57221970       1.00991372      -0.40061112       1.17042785
H        0.26069314      -0.33064986       2.21186989       1.37216684      -0.82595142      -2.50704273
H        0.66695697      -1.89679537       1.22455145       0.35501439       1.25041333       0.22454320
C       -0.03764243       2.12416474       1.23876723      -0.03914514       0.13912274       0.26952037
H       -1.16450275       2.04204967       1.18458177       1.23863197      -0.28708364      -0.18512575
H        0.27921113       1.80104444       2.24954325      -0.14707959       0.09484662      -0.43991666
H        0.22497436       3.22172428       1.16923403      -0.27396871      -0.95829729       0.06220048
C        0.23482301       2.03158736      -1.22169174      -0.04171550       0.32346958      -1.13348771
H        0.76902998       1.55299132      -2.08004459      -0.64641732       0.37221288       0.35019712
H       -0.89556184       1.97174671      -1.34070305       1.38085709      -0.37874946       0.21893346
H        0.47770358       3.10582612      -1.26250456      -0.04261523      -0.12577108      -0.06318004
