13
Properties=species:S:1:pos:R:3:forces:R:3 Coordinates=T from=T ORCA-job=T run=T Energy:=T 137.4412502=T energy=-145820.74746992308 pbc="F F F"
C        0.92076266      -0.11273990       0.17380253       0.09306179       0.11484131      -0.08385746
H        1.22719040       1.90636493      -0.57658415       0.13077036       0.10082916      -0.07729709
Br      -2.18068433       0.20396794      -1.77156372       0.07042222       0.00341855       0.05858096
Br       2.86816212      -0.38285765      -0.35386061       0.01456330      -0.09750531      -0.01267479
C        0.60457264       1.38473001       0.14404803      -0.06609597       0.14652496       0.00062132
H        0.35476390      -0.56292068      -0.64713499       0.09965956      -0.09365516       0.18671965
H       -0.41753145       1.47262720      -0.25129374      -0.24833911      -0.07847003       0.02643661
C        0.71097911      -0.76532638       1.52551981      -0.06539353      -0.04715028      -0.11560013
H        1.39791953      -0.34656556       2.26447146      -0.03393673      -0.10577163       0.01560335
H       -0.30777506      -0.57446268       1.87459491      -0.07509302       0.00155817      -0.09686678
H        0.85242927      -1.84073867       1.46130595       0.05351038      -0.15241355       0.03009918
C        0.67531868       2.02807852       1.44729680      -0.16039151       0.15590319       0.31430303
N        0.63505468       2.47362677       2.51373805       0.17700012       0.04839778      -0.24656882
