16
Properties=species:S:1:pos:R:3:forces:R:3 Coordinates=T from=T ORCA-job=T run=T Energy:=T 43.9732459=T energy=-35339.62274274803 pbc="F F F"
C        0.09271244      -0.07472807       0.09633888      -0.04865075       0.12084756       0.02286391
H        1.61344480       1.35019176       0.15592353       0.05294344       0.03808851       0.04764963
Cl      -1.74308659      -0.21603287      -0.22630899      -0.00833178       0.02495698       0.05755122
Cl       3.45434548      -0.22630792      -0.50134741       0.06718161       0.05383012      -0.00145836
C        0.52224971       1.39334314       0.04622292       0.01482063      -0.01450840      -0.05308041
H        0.56036210      -0.50989096      -0.78342073      -0.03751988      -0.01935160      -0.01973809
C        0.46956123      -0.86721098       1.32997744      -0.01184095      -0.00197301      -0.08587942
H        1.55787148      -0.82670103       1.40974268       0.05269435       0.00653998       0.02621458
H        0.01824288      -0.48007465       2.24123545      -0.05170291      -0.02569027      -0.00815077
H        0.18204920      -1.90816937       1.18376965      -0.04646436      -0.08719375       0.03305362
N        0.00261514       2.19313624       1.31109950      -0.01482723       0.03524406      -0.01362522
O       -0.74102094       3.14354205       1.10384919      -0.03680422       0.02850479      -0.02370341
O        0.38976127       1.85486118       2.41874250       0.07397247      -0.04512688      -0.02610459
N        0.16619276       2.04659207      -1.15869772       0.04525879      -0.04747050       0.02839626
H        0.67589567       2.91311852      -1.27379675       0.05741950      -0.02709057       0.02455714
H       -0.82325875       2.25276902      -1.18934702      -0.10002553      -0.03910535      -0.01057436
