16
Properties=species:S:1:pos:R:3:forces:R:3 Coordinates=T from=T ORCA-job=T run=T Energy:=T 53.1820149=T energy=-18771.84579467214 pbc="F F F"
C        0.49021446      -0.03502455       0.02635518      -0.00450665      -0.04461135      -0.01040657
H        1.08879837       1.62627203      -1.16467408      -0.00044230      -0.01086835      -0.00843459
Cl      -0.38958868      -0.79404366      -1.45845905      -0.00216611       0.00351826       0.00462800
H        3.45316383       0.24173049       0.63650040       0.01626393       0.00914527       0.01376048
C        0.58971941       1.48850404      -0.19155847      -0.00409818       0.00340488      -0.00023697
H        1.51395793      -0.42848022      -0.01170897       0.00038213      -0.01617717      -0.01256037
C       -0.22505072      -0.47653415       1.28430611      -0.00010054      -0.01294222       0.01801600
H        0.30818609      -0.04415065       2.13287400       0.01147848       0.00837614       0.00934031
H       -1.26497741      -0.13557693       1.31556533       0.00247376       0.00820267      -0.02254588
H       -0.21624683      -1.56519546       1.37807889       0.00200772      -0.00911993      -0.00418419
N        1.36389782       1.99362224       0.93115323       0.00284171       0.02793379       0.02083899
H        1.60877199       2.95978715       0.72238669      -0.00619256       0.02793785       0.00132908
H        2.26309530       1.44507479       0.95151481      -0.01740512      -0.03098984      -0.01292667
N       -0.67479204       2.23143452      -0.26521645      -0.01876453       0.00443735       0.00064778
H       -1.13517457       2.15837602       0.63910593       0.03058559       0.01280758       0.01264145
H       -1.28107726       1.78852114      -0.95202456      -0.00377261       0.01279419      -0.01168620
