17
Properties=species:S:1:pos:R:3:forces:R:3 Coordinates=T from=T ORCA-job=T run=T Energy:=T 36.2209310=T energy=-78560.2474969486 pbc="F F F"
C        0.84433284      -0.09432898       0.03219018      -0.00353623       0.02453292      -0.00310830
H        1.83772685       1.77649134       0.11631565       0.04413963      -0.03133367      -0.00029208
Br      -3.04839397       0.35904930      -0.51481140       0.02445808       0.00601234      -0.00904999
F        1.92946778      -0.48636245      -0.79450135       0.01290489      -0.01622975      -0.03090475
C        0.79432724       1.43819805       0.04059719       0.00670493       0.03296087      -0.01924003
H       -0.06301561      -0.48004511      -0.43942799      -0.01591377      -0.00133276       0.01225751
C        1.05627619      -0.75855925       1.37875561      -0.00457637      -0.00316484       0.00075004
H        1.90895255      -0.32302311       1.91129219       0.01107084      -0.02396202       0.00522932
H        0.16187707      -0.66479376       1.99702585       0.00367135       0.00540352       0.03028539
H        1.25240178      -1.82224895       1.22263354       0.01037905      -0.01789487       0.02268058
C        0.01157690       2.01610732       1.23480030       0.00649806       0.00107286       0.00731570
H       -1.02002133       1.65256964       1.23190225      -0.00322808       0.03489453      -0.02458479
H        0.48010288       1.77651413       2.19638411      -0.00513446      -0.02109546       0.02153798
H       -0.00786746       3.10964277       1.15194206      -0.04517004      -0.02050774      -0.00564121
N        0.28204721       1.87148344      -1.26585937      -0.01421086       0.00947204      -0.04465975
H        0.21939870       2.88651180      -1.27846239      -0.00137584       0.00604654       0.01217665
H       -0.67924236       1.53091085      -1.35432125      -0.04236468       0.01389692       0.02157746
