14
Properties=species:S:1:pos:R:3:forces:R:3 Coordinates=T from=T ORCA-job=T run=T Energy:=T 8.7095974=T energy=-78849.2686978397 pbc="F F F"
C        0.91326015      -0.14737022      -0.15740020      -0.00558603       0.02560449      -0.00638025
H        0.98762766       1.88215994       0.68578411       0.03678096      -0.01671509       0.00414161
Br      -2.69454073       0.47720926       1.47325185       0.00777203       0.00903081      -0.00656706
H        1.88685760      -0.19564797      -0.66287649      -0.00247124      -0.00813453       0.02736988
C        0.44909753       1.30301049      -0.06246267       0.00312644       0.03949223       0.00239301
H        0.20087156      -0.69719657      -0.77544789       0.01967910      -0.00906092      -0.01085976
H       -0.62795575       1.33745773       0.17459924      -0.01015224       0.00423802       0.00506378
C        0.99153645      -0.77257494       1.23682703      -0.00276381       0.00240882      -0.00829869
H        1.73213525      -0.25620214       1.86025420      -0.01150287      -0.03481387       0.00480728
H        0.01769257      -0.70822767       1.72966671       0.00954739      -0.02010937       0.01120736
H        1.28359302      -1.82558654       1.16933611      -0.00212149      -0.00857234       0.02948155
N        0.65766969       2.03984201      -1.35009670       0.01273624       0.02895867      -0.00771265
O        1.10865806       3.18163355      -1.29290325      -0.04257495      -0.00830642       0.00515222
O        0.35846211       1.47091552      -2.39324581      -0.01007752      -0.00111294      -0.04736087
