16
Properties=species:S:1:pos:R:3:forces:R:3 Coordinates=T from=T ORCA-job=T run=T Energy:=T 68.9190660=T energy=-79564.25009100596 pbc="F F F"
C        0.01423511      -0.09762073       0.08769690       0.06485526       0.14846171      -0.05937488
H        1.58970971       1.32429236      -0.03072756      -0.07590868      -0.03970412      -0.03723755
F       -1.40544979      -0.10985439       0.06353293      -0.03134459      -0.03692576       0.07931022
Br       3.86065839       0.01860329      -0.15811638       0.01523899       0.01691762       0.03806736
C        0.48612978       1.37252288       0.04036178       0.02428385       0.10909830      -0.15354757
H        0.33442681      -0.59950510      -0.83168974       0.01224119       0.08046307       0.10206010
C        0.49910309      -0.85994140       1.30059776       0.01172494       0.03603511      -0.04241772
H        1.59539748      -0.88710227       1.29155966      -0.08464308      -0.03263089      -0.03543400
H        0.15692638      -0.38173513       2.22108301      -0.04217360      -0.06168046       0.06417649
H        0.10136457      -1.87853322       1.26757479       0.04936877       0.00223101       0.03439889
C        0.08424334       2.21521339       1.27218454       0.04230594      -0.06301515      -0.02258982
H       -0.98966719       2.14801182       1.47470934       0.06570249       0.02303540      -0.06929792
H        0.62775638       1.86269422       2.14958019       0.00460853      -0.01851132       0.02832915
H        0.35243933       3.26747101       1.13023480      -0.05466534      -0.10269325      -0.04886885
C       -0.02009168       1.99580551      -1.19168312      -0.02635720      -0.19356515       0.21817595
N       -0.46204486       2.46148407      -2.14971526       0.01517916       0.13928004      -0.09401745
