17
Properties=species:S:1:pos:R:3:forces:R:3 Coordinates=T from=T ORCA-job=T run=T Energy:=T 33.8221703=T energy=-79918.2506535829 pbc="F F F"
C        0.79510715      -0.07979507      -0.06559029      -0.00575219       0.04657669       0.07525133
H        1.94511171       1.75248241       0.14892339       0.04612462      -0.02495227       0.01475237
Br      -2.96121511      -0.48505907       0.46769546       0.05342584       0.01498389       0.05273697
H        1.58663186      -0.44156881      -0.72314850       0.04426863       0.06552488      -0.09630386
C        0.89361042       1.45208707       0.06033470      -0.04700251      -0.00967602       0.00767033
H       -0.16513663      -0.34174363      -0.51996548      -0.03111535       0.02336398       0.08693153
C        0.89028366      -0.75415085       1.31027083       0.04436406       0.06488027      -0.04842691
H        1.64943289      -0.27979308       1.94004030       0.08206648      -0.03409739       0.09046070
H       -0.07288674      -0.71223573       1.81515114      -0.08250561       0.05049836       0.06965203
H        1.15826463      -1.80594724       1.22011910       0.01066256      -0.15218710      -0.12372660
C        0.08711578       2.05313399       1.20572700      -0.01343009      -0.02031708      -0.05395625
H       -0.90439338       1.59607213       1.24979502      -0.07372873       0.05020059      -0.00740926
H        0.61065907       1.86169631       2.14699627      -0.07293743      -0.04336552      -0.01897912
H       -0.00913582       3.13123219       1.09004660      -0.01137445       0.02014829      -0.02454465
N        0.51785156       2.11291739      -1.28441259      -0.05985041      -0.00017807      -0.08202743
O       -0.05207717       3.19268835      -1.27647078       0.01975419       0.05269785       0.06884480
O        0.87596272       1.53986797      -2.30321909       0.08846404      -0.09804261      -0.01797978
