16
Properties=species:S:1:pos:R:3:forces:R:3 Coordinates=T from=T ORCA-job=T run=T Energy:=T 44.6174129=T energy=-31848.567601776478 pbc="F F F"
C        0.06325233      -0.07852578       0.16238077      -0.00368126      -0.00132224       0.00537250
H        1.59012029       1.31939184       0.11971065      -0.00136402       0.01454212       0.00802064
Cl      -1.78868519      -0.24999242       0.00058403       0.01152518       0.00202122      -0.00192693
Cl       3.29800674      -0.21798610      -0.96090102      -0.01043579       0.02679181      -0.00396150
C        0.48970403       1.39575140       0.09318442       0.00063761      -0.00553809       0.00115755
H        0.46671451      -0.56517757      -0.72307398      -0.01558765      -0.00152311       0.01445472
C        0.52960117      -0.79854918       1.41258844      -0.01670215      -0.00130297      -0.01776500
H        1.62391314      -0.76505696       1.41563233      -0.03575134      -0.01711506       0.01250840
H        0.13533934      -0.33614022       2.32218664       0.01776787       0.00433988      -0.02997627
H        0.21833568      -1.84501495       1.38888483       0.01133966       0.00414773       0.00241866
C        0.03623765       2.16959296       1.25245243       0.02100888      -0.00145471      -0.01332419
N       -0.31473194       2.79694665       2.15600136       0.00866175       0.00906431      -0.00662018
C        0.12470427       2.09545971      -1.22677444       0.00314930      -0.00520716       0.00452902
H        0.54372167       1.51751401      -2.05268610       0.00268564      -0.00261557       0.00983839
H       -0.95608792       2.18767321      -1.35325721       0.00776238      -0.02295130      -0.00223206
H        0.56717351       3.09393129      -1.25966150      -0.00832692      -0.00189791       0.01139316
