14
Properties=species:S:1:pos:R:3:forces:R:3 Coordinates=T from=T ORCA-job=T run=T Energy:=T 41.4900699=T energy=-78848.9408491117 pbc="F F F"
C        0.63513047       0.00558093       0.14975316       0.01667878       0.02605480       0.08448695
H        2.13034117       1.51415025       0.63606928       0.01461107       0.00457247      -0.00350568
Br      -2.53635229      -0.81784751      -1.64801902       0.02828530       0.00046077       0.00136840
H        1.17704426      -0.34987448      -0.73641774      -0.02086722      -0.02700384       0.04411383
C        1.08596619       1.45549153       0.31095775       0.01126582       0.04603790       0.00636067
H       -0.42350677      -0.05414758      -0.13653209       0.02822181       0.03827618      -0.02799633
H        0.96263311       2.02480320      -0.60530690      -0.04509160       0.01122581      -0.06498008
C        0.93076679      -0.90462121       1.34349687       0.00104599      -0.02138278       0.03163732
H        1.96046798      -0.79268169       1.70920514       0.00656675      -0.03606405      -0.06299817
H        0.27006213      -0.68494675       2.18160480      -0.01200175      -0.00774241       0.00864400
H        0.77733609      -1.94909006       1.06141820      -0.01533688      -0.00457071      -0.01783625
N        0.34387136       2.26350061       1.36028459      -0.01543460       0.02372037      -0.03071914
O       -0.10069411       3.35260686       1.02616796       0.01044255      -0.02909766      -0.03492836
O        0.27839035       1.80600764       2.49276819      -0.00738929      -0.02878131       0.06340663
