14
Properties=species:S:1:pos:R:3:forces:R:3 Coordinates=T from=T ORCA-job=T run=T Energy:=T 61.8682969=T energy=-78302.62344960058 pbc="F F F"
C        0.11711370       0.06916725       0.17990726      -0.08398942       0.03755302       0.08073931
H        2.97851383       0.73316669      -0.51099021      -0.03062947       0.00965060       0.00237703
Br      -2.44465773      -1.53078464      -0.36577031       0.02057527       0.00996244       0.01027447
H        3.69017788       0.93354098      -0.55745898       0.07309617      -0.00517348      -0.00863834
C        0.09897911       1.43542539       0.14104393       0.07011410      -0.03006042       0.01039983
H        0.04845495      -0.45613745      -0.76159919       0.03704729      -0.08095382       0.00199177
C        0.38780185      -0.72555973       1.41722175      -0.00687615       0.01086235      -0.03919648
H        1.47637652      -0.77090102       1.57488170      -0.01047088      -0.05474525       0.02715574
H       -0.04935935      -0.27526316       2.31239873      -0.00249624       0.02467337      -0.07828310
H       -0.01001096      -1.73243887       1.30596964       0.02005396       0.02531677      -0.01042476
C        0.18644533       2.22160673       1.33063753      -0.05921916      -0.04600041       0.00331752
N        0.26476209       2.82884900       2.31318169       0.02693724       0.04754699      -0.02600014
C        0.03278933       2.13488111      -1.10215367      -0.06133341       0.05347412      -0.01832601
N        0.00934409       2.70464109      -2.10927674       0.00507530      -0.00037249       0.04359278
