14
Properties=species:S:1:pos:R:3:forces:R:3 Coordinates=T from=T ORCA-job=T run=T Energy:=T 23.3781605=T energy=-11521.79373561046 pbc="F F F"
C        0.56273674      -0.20440864       0.26490620      -0.00619582      -0.00983868       0.00549938
H        1.58239916       1.78077632       0.25305311      -0.01644084       0.00632804       0.01570278
F       -0.32464926       1.69521418      -2.06447410      -0.00610027      -0.01597540       0.00551432
H        1.08635359      -0.47629906      -0.66086180      -0.00555998      -0.02083615       0.00995239
C        0.61416553       1.30020021       0.37910062      -0.01052013      -0.00039219      -0.01006622
H       -0.47595912      -0.52095300       0.12656388      -0.01835316       0.01391661       0.00867491
H       -0.05513545       1.66071440      -1.09507911       0.01218514       0.01383906      -0.00043946
C        1.15888961      -0.97738736       1.45511724       0.01838528      -0.00646341       0.00555330
H        2.21903876      -0.73804751       1.59533057       0.02958678       0.01690241      -0.01147064
H        0.62769925      -0.70508309       2.36975789      -0.01104093      -0.01309405      -0.00385629
H        1.07840214      -2.06567812       1.32427814      -0.01525332      -0.00327720      -0.00998760
N       -0.08386152       1.88790970       1.43306541       0.03177976      -0.00340451       0.00882202
O        0.20504704       3.05608785       1.78916587      -0.01554737       0.02118806       0.00481071
O       -1.02520006       1.25666955       1.98588653      -0.00352980      -0.00598356      -0.03196570
