17
Properties=species:S:1:pos:R:3:forces:R:3 Coordinates=T from=T ORCA-job=T run=T Energy:=T 35.0807206=T energy=-21039.376807811404 pbc="F F F"
C       -0.10922764      -0.09055779       0.03998948       0.01251832       0.00139142      -0.00322030
H        1.50616262       1.24111702      -0.21793268       0.02178317      -0.01414629       0.00892433
F       -1.53141629      -0.02077063       0.23832851      -0.00687826      -0.02403208       0.01353123
Cl       3.86558999       0.64152978       0.98737167       0.00913754      -0.01211583      -0.01049847
C        0.42803903       1.33286213      -0.04561121       0.01234673       0.00607901       0.00848782
H        0.00809159      -0.55265985      -0.94392615       0.00802527       0.00543135      -0.01697251
C        0.48875908      -0.96215449       1.12205561      -0.00769498       0.00087569       0.00440342
H        1.58156740      -0.95409773       1.04634578      -0.01335826       0.01681607      -0.00150619
H        0.22614147      -0.59285736       2.11648685      -0.02515815       0.01281369      -0.00325531
H        0.11368017      -1.98653073       1.02881544       0.00919033      -0.00612372       0.00656059
C        0.23329736       2.12690965       1.25455653      -0.00587229      -0.00423680      -0.01515771
H       -0.82629301       2.17179177       1.53376840       0.01501048      -0.00253772       0.00997626
H        0.80788884       1.68660000       2.07331647      -0.00644413       0.03097571      -0.02173511
H        0.60104003       3.15043658       1.12423329      -0.01042140      -0.02267521      -0.00525891
N       -0.17713640       1.96458007      -1.23724727       0.00003851      -0.00311032       0.02079298
H        0.22872610       2.88799529      -1.36224877      -0.01423749      -0.00752304       0.01315273
H       -1.16957913       2.10130872      -1.06013227      -0.00298968       0.02071406       0.00340342
