16
Properties=species:S:1:pos:R:3:forces:R:3 Coordinates=T from=T ORCA-job=T run=T Energy:=T 78.7383285=T energy=-19342.772576692867 pbc="F F F"
C        0.55809114      -0.09524784       0.15405462       0.00954230       0.08257695      -0.07481742
H        1.88512008       1.59664246       0.07556541       0.04272377       0.00529916       0.00052822
Cl      -2.69831968      -0.41272057      -1.37202039      -0.00566537       0.01708824      -0.01615052
H        1.09698105      -0.50667776      -0.70854022       0.01147319      -0.03457245       0.03914063
C        0.79804233       1.43023634       0.09939796      -0.01188434       0.10920063      -0.11268274
H       -0.49849725      -0.31347032      -0.04349370       0.00201421       0.03592804       0.10637505
C        1.06257114      -0.73774379       1.44238565       0.00853963       0.00868918      -0.02364992
H        2.08840614      -0.42344310       1.66941496       0.07040004      -0.07736997       0.01558664
H        0.44525891      -0.46008340       2.30023160      -0.03950007      -0.01339052       0.00914298
H        1.05111629      -1.82625613       1.35555358      -0.00936968      -0.06008083       0.05810404
C        0.35598019       2.14534151       1.30484145      -0.00012430      -0.00122741       0.01448280
N        0.08110382       2.74896017       2.25007533      -0.05110951      -0.03992176      -0.00468342
C        0.18289694       2.05460346      -1.16941630      -0.00319745       0.01527478      -0.08277648
H        0.65250024       1.59693884      -2.04634126      -0.05138217       0.00125636       0.02089062
H       -0.88969016       1.83688537      -1.22771475       0.11822112       0.05269777       0.00999177
H        0.36883971       3.13549081      -1.21571131      -0.09791996      -0.09641783       0.04267300
