15
Properties=species:S:1:pos:R:3:forces:R:3 Coordinates=T from=T ORCA-job=T run=T Energy:=T 88.5831074=T energy=-9972.685686246668 pbc="F F F"
C        1.24917848       0.06701505       0.22617582      -0.00248250      -0.03817309       0.01321389
H        1.84932955       2.03276037      -0.44469471       0.01571424      -0.00523387      -0.00485956
F       -1.29739674      -0.86293064      -1.07799182      -0.03782707      -0.01486483       0.01330487
H        2.22490367      -0.02372052       0.72470553      -0.00234406       0.01752718       0.01763078
C        0.95648491       1.57585579       0.00924179       0.00963953      -0.03550969       0.01254283
H        1.33496355      -0.37905383      -0.77751336       0.00777319       0.00113547      -0.02391229
N        0.19695200      -0.54830674       1.02160664      -0.01774622       0.01087298      -0.00174711
H        0.54606197      -1.42402185       1.40340739       0.01627875       0.00025663      -0.03568433
H       -0.55352236      -0.78920355       0.31049783       0.00296647       0.01887716      -0.01388394
C        0.80190620       2.25087535       1.30357602      -0.00322705       0.03950892       0.01709015
N        0.73765664       2.83858087       2.29575675       0.00368838       0.02884836       0.01666805
C       -0.25503395       1.81422842      -0.92499283       0.00907841      -0.01394882       0.00540434
H        0.09255464       1.73787705      -1.96016941       0.00255448       0.01964404      -0.02185443
H       -0.99469068       1.00785725      -0.81439585      -0.00714175      -0.02213218      -0.01432613
H       -0.68850852       2.80942159      -0.78148001      -0.00003494       0.00029758       0.01678336
