13
Properties=species:S:1:pos:R:3:forces:R:3 Coordinates=T from=T ORCA-job=T run=T Energy:=T 75.2905897=T energy=-23919.673806256407 pbc="F F F"
C        0.24505449      -0.06194273      -0.06110719      -0.03485589       0.07791624       0.17728451
H        2.42666223       1.25485891       0.12581247      -0.06730469      -0.06930242      -0.03963374
Cl      -2.58701972      -0.98947610       0.14433201       0.20622767      -0.13804174       0.00641711
F        3.21345206       0.91331094       0.50065440       0.09042241       0.04121643       0.04143031
C        0.31159289       1.34102329      -0.07347753       0.11031152      -0.27169558       0.07205596
H       -0.20073777      -0.57678575      -0.89453284       0.03645226       0.00437568      -0.26129327
N        0.78173061      -0.85598299       0.86995771      -0.12422507       0.23130687       0.18537871
H        1.14924275      -0.44832101       1.72185375      -0.10210514      -0.08498431      -0.09763128
H        0.42781810      -1.79999751       0.93379885      -0.12662120       0.12324989       0.01681421
C        0.34067522       2.08207178       1.14086434       0.00324139      -0.00826070       0.04068380
N        0.32747074       2.65275092       2.15098396       0.14290776      -0.03918487      -0.12753881
C        0.07931765       2.00328372      -1.30822046      -0.12896111      -0.15944391       0.35595239
N       -0.06354729       2.49255212      -2.34430694      -0.02153611       0.28137701      -0.34958305
