15
Properties=species:S:1:pos:R:3:forces:R:3 Coordinates=T from=T ORCA-job=T run=T Energy:=T 50.3166287=T energy=-80000.79722849504 pbc="F F F"
C        0.77760515       0.02287842       0.00096053       0.04903066      -0.02073068      -0.07370901
H        1.92756691       1.78178901       0.43208187      -0.00237828      -0.00165248       0.04986905
Br      -2.31768408      -1.55857872       0.54608099      -0.01306840      -0.07858140       0.07195707
F        1.70692632      -0.39141729      -1.00560226      -0.07016710       0.03601404       0.09649136
C        0.90277336       1.55871623       0.10540192       0.03762127      -0.00901850      -0.00431144
H       -0.22490300      -0.27772277      -0.31903709       0.06141037       0.09255547      -0.03279834
N        1.05703720      -0.60487807       1.24582288       0.01100609      -0.01120499      -0.02525322
H        2.02858702      -0.88911153       1.29750687      -0.02143171       0.00145323       0.02840963
H        0.42998108      -1.39537482       1.37970964      -0.01850693       0.00172699      -0.05756771
C       -0.10945541       2.09295765       1.14159704      -0.00253616      -0.00196279      -0.01759963
H       -1.09705454       1.67007549       0.93770156       0.00257681       0.08348061       0.04730962
H        0.19662346       1.75516782       2.13365889      -0.05406192      -0.00662683      -0.08669632
H       -0.16949640       3.18663066       1.13045296       0.03742027      -0.08168067      -0.03387332
C        0.75027748       2.22354911      -1.19549967       0.04569490       0.12241805      -0.04824010
N        0.66905629       2.81949327      -2.18184160      -0.03948789      -0.13207136       0.10812169
