12
Properties=species:S:1:pos:R:3:forces:R:3 Coordinates=T from=T ORCA-job=T run=T Energy:=T 49.9281993=T energy=-21410.39071987363 pbc="F F F"
C        0.32766769      -0.25004536      -0.21097326       0.05679991       0.14213878      -0.05862893
H        1.79312489       1.31541184      -0.20733679       0.06209732      -0.04921222       0.02558425
Cl      -2.38236613       0.28184741       0.76116596      -0.03396602      -0.00673239       0.04541280
F        2.90345764       0.38140895       1.70091752      -0.02342290      -0.11325508      -0.00090675
C        0.70660215       1.22134918      -0.26498721       0.05946914       0.07976029       0.01877451
H       -0.49963325      -0.60092296      -0.82065978      -0.01035601       0.07705735       0.06589710
H        0.31856259       1.67351057       0.65372442      -0.12011662       0.01946226      -0.10193332
N        1.02109737      -1.00372413       0.55124889      -0.10010687      -0.03938323       0.10723125
H        2.22565624      -0.24869942       1.39472554      -0.00302890       0.03777816      -0.05550677
H        0.61484468      -1.93674217       0.61470916       0.17019584       0.01192673      -0.07457258
C        0.22183692       1.97423977      -1.41847763      -0.20739153      -0.02984238      -0.12916018
N       -0.13248149       2.58332663      -2.33378777       0.16537541      -0.12611084       0.15405734
