16
Properties=species:S:1:pos:R:3:forces:R:3 Coordinates=T from=T ORCA-job=T run=T Energy:=T 59.7130293=T energy=-15727.70766893756 pbc="F F F"
C        1.02251812      -0.08380081      -0.03576142       0.01840906      -0.03344932      -0.04781566
H        1.66045357       1.89894344       0.45920574       0.00930731       0.00166175       0.05637708
F       -1.49749908       0.21431628       0.07047399      -0.01369011      -0.02883812       0.02201438
F        2.32829851      -0.09454784      -0.68976733      -0.03810852       0.00178968      -0.01393332
C        0.73579681       1.42101444       0.10981232      -0.04225344      -0.00831930       0.04601947
H        0.32698108      -0.48721760      -0.76270413       0.03307835      -0.01236105      -0.00565944
N        1.11828210      -0.87061676       1.14628377      -0.05131398       0.04252990      -0.02467910
H        0.66790021      -1.76170861       0.96760532      -0.02486129       0.06461016       0.03691374
H        0.58819736      -0.40936707       1.88258698       0.08707359       0.00270593      -0.04210231
N       -0.27004443       1.80760373       1.19886563      -0.05968461       0.01404591      -0.00430382
O       -0.94490720       2.80966710       1.01135063       0.02290893      -0.00248921      -0.04487676
O       -0.14577052       1.29266082       2.31566827       0.03549308      -0.01825858       0.01823526
C        0.26895164       1.99426602      -1.22046136       0.00469007      -0.01548145      -0.00032243
H        0.93166719       1.64151685      -2.01436453       0.05265721      -0.01215461       0.01281526
H       -0.73816926       1.59770849      -1.35754557      -0.00922587       0.01357915      -0.02927012
H        0.25985692       3.08527820      -1.22246395      -0.00310223      -0.00795225       0.02969817
