13
Properties=species:S:1:pos:R:3:forces:R:3 Coordinates=T from=T ORCA-job=T run=T Energy:=T 14.2640532=T energy=-77927.53252582932 pbc="F F F"
C        0.35603744      -0.17943783       0.11126168      -0.02526112       0.01417938       0.00590951
H        1.59673609       1.53611660       0.28242034       0.01843891      -0.02019614      -0.00232321
Br      -3.15703975       0.95559689      -0.44217260       0.01596756      -0.01597224      -0.00396972
F        3.56873590      -0.05840277       1.31670956       0.02500381       0.02060786       0.00422213
C        0.55138755       1.30566321       0.06074558       0.01230118       0.01298535      -0.00062845
H       -0.62827685      -0.51539855      -0.22949140      -0.00682096      -0.03866689      -0.01457807
H       -0.07900308       1.72671791       0.86455860       0.03322691       0.00003053      -0.00886481
N        1.25365801      -0.97179155       0.55264429      -0.01543052       0.01125498      -0.01150369
H        2.72452084      -0.45415490       1.04840396      -0.03210256       0.00453128      -0.01378715
H        0.95257602      -1.94604397       0.53772621      -0.02175492       0.01699218       0.00179171
N        0.18024729       1.79131125      -1.27875114      -0.00053194       0.00099674       0.04645752
H        0.35559809       2.79292198      -1.30744939      -0.03187879      -0.02147162      -0.00492524
H       -0.83725625       1.68166081      -1.35833863       0.02512437       0.01219941      -0.00342298
