16
Properties=species:S:1:pos:R:3:forces:R:3 Coordinates=T from=T ORCA-job=T run=T Energy:=T 40.0278047=T energy=-80354.61706994225 pbc="F F F"
C        0.91541842      -0.12479535      -0.11990767       0.04998549      -0.04193358      -0.00792003
H        1.90680241       1.75357711       0.32896482       0.00100309       0.05604489      -0.00105319
Br      -2.55373339      -0.89139863      -0.14757783      -0.01469071      -0.02146347       0.00429361
H        1.83235651      -0.31650269      -0.69795116      -0.02981082       0.01351510      -0.04338367
C        0.90005073       1.43383725       0.04582770       0.02295118       0.04763077      -0.00524201
H        0.05454999      -0.40541049      -0.73165084       0.00300938      -0.02867796       0.05404933
N        0.89782059      -0.96626747       1.05942147      -0.02460344       0.04400870       0.01173765
H        1.37023933      -0.51790045       1.83734546      -0.05135413      -0.01344622      -0.00180009
H       -0.07814408      -1.09910360       1.32268956      -0.00748290      -0.03912882      -0.02861830
N        0.08755514       1.90630933       1.24403276       0.04672588       0.12577046       0.02733236
O       -0.90324241       2.59112027       1.06648127      -0.02327637      -0.05667095      -0.01397967
O        0.53641923       1.60873200       2.35084392       0.01471342      -0.04261476      -0.02107348
C        0.41805818       2.11491680      -1.22450920      -0.01379758       0.01949183      -0.01713490
H        1.03627496       1.79032326      -2.06773579      -0.00233005      -0.04565145       0.02328885
H       -0.61602190       1.82963770      -1.41825866      -0.01615165      -0.02755483      -0.03645566
H        0.46885849       3.20473509      -1.16674402       0.03843443       0.00548754       0.05947179
