16
Properties=species:S:1:pos:R:3:forces:R:3 Coordinates=T from=T ORCA-job=T run=T Energy:=T 47.6470277=T energy=-15728.46134642481 pbc="F F F"
C       -0.04615314      -0.15625713       0.05482674       0.00289775      -0.00088816      -0.01836236
H        1.59602963       1.17481318       0.00240409       0.02920948      -0.00611647      -0.00144789
F       -1.46063266      -0.11658583       0.36905537       0.00517730       0.01002413      -0.00501374
F        2.85408700       0.53985548       0.94152605      -0.00000820      -0.02345193       0.00614749
C        0.47715867       1.28182050      -0.00024703       0.00753082      -0.00821519      -0.03017771
H       -0.04468403      -0.59513168      -0.94724948       0.00152135       0.02088268       0.02251033
N        0.65804215      -0.87893827       1.04287865      -0.00494772      -0.02643984      -0.02395104
H        1.62807636      -0.46834833       1.14017428      -0.01809810       0.02159221       0.00315570
H        0.70454975      -1.86251624       0.80471961       0.01594405       0.00383150       0.00711886
C        0.11084502       2.11105690       1.21611359      -0.00717198      -0.00624550      -0.01952440
H       -0.96862099       2.19480021       1.35273688      -0.01829627       0.00227965      -0.01497857
H        0.55069712       1.60140741       2.07320873       0.01497378       0.04200194       0.00496144
H        0.54371887       3.10929292       1.14300145      -0.00034805      -0.00751830       0.01773588
N        0.07911643       1.93934626      -1.29293019      -0.04748983      -0.00461643       0.00709635
O       -0.30613201       3.10622786      -1.27322294       0.01357305      -0.01217341       0.01921559
O        0.21580194       1.29703180      -2.33390806      -0.00667417      -0.01108134       0.02537602
