14
Properties=species:S:1:pos:R:3:forces:R:3 Coordinates=T from=T ORCA-job=T run=T Energy:=T 97.2880891=T energy=-10407.163066290308 pbc="F F F"
C        0.59613277      -0.05849827      -0.25512389       0.00232863      -0.00549134       0.01518047
H        1.27332150       1.76622383      -1.16828503       0.00012016       0.01748922      -0.00794363
F       -0.16333620      -0.61872014      -1.30520160       0.04663020       0.00066303       0.00741395
H        2.47732298       0.16461264       2.13798044       0.00374816       0.00742436       0.00333346
C        0.56534366       1.49279158      -0.37531653       0.01009154      -0.01583274       0.00722045
H        1.62967471      -0.38751719      -0.43408559      -0.01133160      -0.00369940       0.00672852
N        0.07130016      -0.48219311       1.00983842       0.00074698      -0.00542972      -0.01274706
H        0.87247835      -0.31741870       1.67569342      -0.00681107      -0.00970985      -0.02470764
H       -0.03158671      -1.49583158       0.96319974      -0.00885219       0.00032769      -0.00465357
N        0.95764373       2.19249328       0.85311402       0.00317771      -0.02138481      -0.00602772
H        1.76832772       1.67524257       1.25340107       0.00635176       0.00018496       0.00124908
H        0.22930418       1.99933011       1.53855285      -0.00741824       0.01780119       0.00189743
C       -0.75333630       1.96674578      -0.82821918      -0.02279838       0.01867648       0.00330496
N       -1.77366546       2.37125959      -1.18408196       0.00543676      -0.00719980      -0.00085743
