13
Properties=species:S:1:pos:R:3:forces:R:3 Coordinates=T from=T ORCA-job=T run=T Energy:=T 49.3097784=T energy=-28522.54183714999 pbc="F F F"
C        0.92058223      -0.02624383       0.13772005       0.02353348       0.05313069      -0.06951689
H        1.20917463       1.97674830      -0.63082968       0.02704406      -0.01064756      -0.05660909
F       -1.88903465       0.75404706      -1.08780384       0.09198298       0.06767814       0.05239103
Cl       2.95675675      -0.79519580       0.82789463       0.01485480       0.02568798       0.02968295
C        0.76913569       1.34625351       0.12334915      -0.01473641       0.01133748      -0.03544768
H        0.40700882      -0.62912071       0.86745405       0.03205876      -0.03560835      -0.07623003
H       -1.09058667       1.04417017      -0.67627479      -0.05323483      -0.02742141      -0.03268173
N        0.99008864      -0.68732695      -1.20224866      -0.05000381      -0.02520741       0.03886952
O        1.48523752      -0.07246178      -2.13600616      -0.03372937       0.02006939       0.12028798
O        0.50977030      -1.80795106      -1.27321228      -0.00810596       0.03069838       0.02260986
N        0.46279768       2.03265125       1.33351045       0.02889044      -0.07707839       0.02174066
O        0.61938080       3.26120604       1.34178942      -0.02675709      -0.00516175      -0.05403565
O        0.04321270       1.39248628       2.30449490      -0.02229080      -0.02825842       0.03133597
