14
Properties=species:S:1:pos:R:3:forces:R:3 Coordinates=T from=T ORCA-job=T run=T Energy:=T 23.2188034=T energy=-33833.5582536511 pbc="F F F"
C        0.40839917      -0.10755088      -0.19958040       0.02079054       0.00641111       0.00349497
H        1.79278303       1.40571062      -0.64141866       0.00416386      -0.01147894      -0.03057278
Cl      -1.20496418      -0.38721899       0.54878296      -0.04365043      -0.01433705       0.01831573
Cl       2.82246952      -0.15457230       2.04241657       0.00185251      -0.03695396       0.01489006
C        0.75141558       1.36831529      -0.31665427       0.00096902       0.03809786      -0.02352458
H        1.16299393      -0.58679909       0.44263323       0.02899812      -0.01229802       0.01330583
H        0.76162653       1.74728415       0.70710280      -0.02499724       0.01130049      -0.00873368
N        0.47109350      -0.77387735      -1.57565080      -0.00250543      -0.03060202       0.03168061
O        1.56861450      -0.70793885      -2.11346491      -0.02051119       0.03158882       0.00195257
O       -0.51280686      -1.30985161      -2.05574472       0.02541040      -0.02419010      -0.02389924
C       -0.15222152       2.18873885      -1.23637058      -0.00513712       0.01938846      -0.00931705
H       -0.11005954       1.83320008      -2.27148598       0.02193525       0.01303132       0.00638840
H       -1.19845736       2.16006710      -0.92022218       0.01546505      -0.00661357       0.02901590
H        0.16956821       3.23421330      -1.23505994      -0.01547868       0.01065053      -0.02083398
