11
Properties=species:S:1:pos:R:3:forces:R:3 Coordinates=T from=T ORCA-job=T run=T Energy:=T 14.7722682=T energy=-32764.373482391387 pbc="F F F"
C        0.88162526      -0.07307499      -0.09034738      -0.00047840      -0.00553784       0.05700063
H        1.69779430       1.83518427      -0.66923755      -0.02694097       0.03249572      -0.03384506
Cl      -2.24939965       0.19762258       0.95664509      -0.00881631      -0.00592828       0.00269472
Cl       2.28748732      -0.61618093       0.93746003       0.00540262      -0.06678383      -0.03628453
C        0.81700367       1.42261659      -0.17714993       0.01056628       0.05188814       0.01596604
H       -0.03727126      -0.49449036       0.32897997       0.00300276      -0.00452332       0.01643876
H        0.72658694       1.81942523       0.83401422      -0.03951817      -0.01584342      -0.00132629
H       -0.09987364       1.69186470      -0.70524098       0.04760676       0.03582653      -0.02949696
N        1.09039307      -0.72769462      -1.46209373       0.00238771       0.01137584       0.00387236
O        1.55976955      -0.04345635      -2.36162146      -0.00056409      -0.00226308      -0.01004749
O        0.76768217      -1.89663897      -1.56487923       0.01843465      -0.04057522       0.01549023
