14
Properties=species:S:1:pos:R:3:forces:R:3 Coordinates=T from=T ORCA-job=T run=T Energy:=T 153.7071478=T energy=-21226.12970439351 pbc="F F F"
C        0.35216461      -0.11214054       0.05733737       0.01616554      -0.02289331      -0.00241788
H        1.09726605       1.62546774      -0.98930384       0.00043555      -0.04381896      -0.01582544
F       -0.45625904       0.25779936      -2.01023574       0.00318979      -0.02281307      -0.00004795
F        0.98158802      -0.37411078       1.28731134      -0.00768523       0.00126985      -0.01781757
C        0.36066520       1.39574637      -0.22877495      -0.01023206      -0.02827421      -0.01037868
H       -0.62678023      -0.56518756       0.06919537       0.00325294       0.02660123      -0.01292127
N        1.20301030      -0.90201922      -0.92170661       0.01541417       0.00869465      -0.01676866
O        2.23247255      -0.38648794      -1.33448863      -0.03201081      -0.00769026       0.00678123
O        0.88440901      -2.07057764      -1.07275361       0.03344281       0.01525234       0.00035103
N        0.86483706       2.16696977       1.04406935      -0.00474073       0.01346567       0.01588046
O        1.94062354       2.73478684       0.94030948      -0.00152577      -0.02836336       0.01241661
O        0.15833373       2.16095027       2.03503417      -0.01649664       0.02959986      -0.01129165
C       -0.95134072       1.93736875      -0.56730499      -0.02446865       0.01617317       0.03041127
N       -1.93815719       2.53254082      -0.65184660       0.01031926       0.01836038       0.00887444
