13
Properties=species:S:1:pos:R:3:forces:R:3 Coordinates=T from=T ORCA-job=T run=T Energy:=T 27.5960206=T energy=-34270.042176375064 pbc="F F F"
C        0.85719072      -0.06205366      -0.16475364       0.02158851      -0.01332081       0.05567910
H        1.84331783       1.73222282      -0.73644136       0.02443181       0.03713140       0.07587291
Cl      -2.42350872       0.61947745       0.93804239       0.00561947      -0.01960448       0.05107359
Cl       2.11966112      -0.68987272       0.97914052       0.07048615       0.04903264       0.04096576
C        0.89392296       1.45063054      -0.27258499       0.01854706      -0.02021736      -0.04297819
H       -0.10283221      -0.44259198       0.19319269       0.03367535       0.06167179      -0.21074604
H        0.87164099       1.85368865       0.75407998      -0.09307857      -0.09703164      -0.08277647
N        1.17439089      -0.72840815      -1.51616859       0.07460850      -0.01559788       0.07586359
O        2.03015509      -0.21772782      -2.21995439      -0.02035653       0.03924180       0.03059959
O        0.58634674      -1.76492877      -1.76300932      -0.14227472      -0.00998865      -0.01594537
N       -0.21209560       1.85251494      -1.13738673       0.03017532      -0.01993017       0.02263870
H       -0.23126555       2.86730997      -1.19575907       0.01928617      -0.05976791      -0.05527477
H       -1.08472985       1.56802528      -0.67666700      -0.04041169       0.08276715       0.05645613
