17
Properties=species:S:1:pos:R:3:forces:R:3 Coordinates=T from=T ORCA-job=T run=T Energy:=T 52.1956432=T energy=-37847.7046949179 pbc="F F F"
C       -0.02276418      -0.09997956      -0.06787547       0.01884234      -0.05763600      -0.03564661
H        1.43706749       1.38496459      -0.26590086       0.05103886      -0.03337952       0.10051751
Cl      -1.81871455      -0.33590559      -0.37111198      -0.03851678       0.02479738       0.03107761
Cl       3.49298061       0.46294647       0.62442742      -0.01904947       0.05335719       0.00289462
C        0.35974771       1.40574337      -0.06831924       0.01907130      -0.05600605       0.01751840
N        0.67508707      -0.85918255      -1.27556385       0.06146130      -0.01635852      -0.05251068
O        1.24380318      -0.18877779      -2.10069258      -0.06018110       0.07071738      -0.04525817
O        0.55027808      -2.06845144      -1.28070641      -0.04055247      -0.02893964       0.05785042
C        0.27264419      -0.85470648       1.14560413       0.00498204       0.05335524      -0.02846368
N        0.36708028      -1.45956703       2.12211262      -0.00598544       0.02544639       0.00154499
C        0.16078960       2.04344942       1.31176057      -0.01893431       0.00675707      -0.05007778
H       -0.88571928       2.01082500       1.63708704      -0.01374085      -0.04301606       0.00972667
H        0.79691745       1.57180063       2.06447268      -0.05108257      -0.01456339      -0.07467975
H        0.45994275       3.09213644       1.24585516       0.01973567       0.02833104      -0.01281880
N       -0.32638746       2.08625307      -1.16729722       0.07248271       0.15244635       0.05771681
H        0.32940688       2.69489843      -1.64728601      -0.10212156      -0.10996227       0.04658210
H       -1.09741158       2.65287404      -0.82398821       0.09410286      -0.06033654      -0.02278638
