15
Properties=species:S:1:pos:R:3:forces:R:3 Coordinates=T from=T ORCA-job=T run=T Energy:=T 36.6063157=T energy=-26536.18220423082 pbc="F F F"
C        0.30751610      -0.05016348      -0.00886945      -0.00131632       0.03240918       0.01879823
H        1.64773940       1.52989745      -0.08809312      -0.00935429      -0.00119321      -0.00369816
Cl      -1.66194178      -0.23542537      -0.16743582       0.01175323       0.00600704      -0.01727950
F        2.50067484      -0.31850560       0.09963156      -0.00425562       0.00597200       0.00715048
C        0.56732149       1.45203408       0.01345775      -0.01110024       0.02994755      -0.00700350
H        0.09535885       1.87339828      -0.87401968      -0.00216637       0.00177129      -0.03644680
N        0.74527531      -0.73203711      -1.31147826       0.00056940      -0.00333934       0.00902969
O        0.92081393      -0.00022209      -2.27319885      -0.00145129      -0.03913827      -0.00306396
O        0.75629725      -1.94603906      -1.32975981       0.00062357       0.00171764       0.00762044
C        0.64137246      -0.81660566       1.17601780      -0.00398112      -0.00085580      -0.00927278
N        0.64802881      -1.35144480       2.20232577      -0.00396257      -0.00405487      -0.00563696
C        0.07397094       2.16585897       1.27148909       0.00022052      -0.00614160       0.00977700
H       -1.01252665       2.11004491       1.37341529       0.00222531      -0.01210517       0.01249062
H        0.52184490       1.74795137       2.17577053       0.02473804      -0.01292951      -0.00161239
H        0.35405539       3.22349250       1.21731105      -0.00598837      -0.01557665       0.00954554
