14
Properties=species:S:1:pos:R:3:forces:R:3 Coordinates=T from=T ORCA-job=T run=T Energy:=T 45.1227495=T energy=-81547.71704737846 pbc="F F F"
C        0.24014039       0.03902047       0.06175409      -0.03560445       0.00569419       0.00186807
H        1.87645495       1.26776716       0.05648663       0.01815515       0.01707791       0.01805850
Br      -1.85070572       0.18030465      -0.10804944      -0.01758348      -0.00455813      -0.01609798
F        2.82760081      -0.34790303      -0.08389344      -0.02328221      -0.01497804      -0.04018148
C        0.79035666       1.43988823       0.03028468       0.00435104       0.01019829      -0.00374479
H        0.43416949       1.99368261       0.90265097       0.00653510      -0.00648627       0.01595562
H        0.49948205       1.96331683      -0.87773586       0.00824484      -0.00444490      -0.02405666
N        0.60443667      -0.73937832      -1.22120210      -0.00561116      -0.00055881       0.00353587
O        0.77402359      -0.08898881      -2.23989476       0.01284220       0.00429565       0.01163459
O        0.54737179      -1.95763583      -1.17098505       0.02378782       0.01039165       0.01076921
C        0.54234033      -0.76432215       1.29848989      -0.00199703      -0.01008244       0.00783493
H        1.64011606      -0.83786411       1.26784898       0.01273595       0.00006890       0.02965738
H        0.18352901      -0.22925014       2.18137813       0.00213328       0.01664468       0.00259010
H        0.08428180      -1.74999218       1.25736890       0.00038424      -0.01976921      -0.01904503
