19
Properties=species:S:1:pos:R:3:forces:R:3 Coordinates=T from=T ORCA-job=T run=T Energy:=T 83.9632699=T energy=-16796.84236788723 pbc="F F F"
C       -0.04042019       0.00654153      -0.00116210       0.05728467      -0.00488301      -0.09829470
H        1.59412737       1.30014794      -0.22123080       0.00664787      -0.03329789      -0.02029993
F       -1.44850420       0.02563942      -0.18264110       0.12399143       0.03844629       0.09191441
F        2.86271853       0.28584818       1.02146457      -0.00029583       0.07385396       0.05808967
C        0.51916444       1.44503269      -0.06424625       0.02099985      -0.00945005       0.01817889
N        0.38283798      -0.81469658      -1.29516455      -0.26040203      -0.00768302      -0.09578986
O        0.78986633      -0.19976241      -2.27086313       0.12479363      -0.03925410       0.03710192
O        0.17466841      -2.01875880      -1.29036571       0.07354779       0.15400547       0.08857882
C        0.36227882      -0.77417501       1.21213637      -0.02519809      -0.04123059      -0.03283300
H        1.47852497      -0.61175761       1.30846025      -0.14516728      -0.04450501      -0.05715583
H       -0.13858759      -0.33142507       2.07493511       0.00061587      -0.00602641       0.05240103
H        0.05207747      -1.81476066       1.12865068       0.03848177      -0.07047276      -0.07940250
C        0.42941571       2.09079323       1.32744436      -0.02195719      -0.01099949       0.00161581
H       -0.56535562       1.98385457       1.78309788       0.06098072       0.03220607       0.01451577
H        1.20363420       1.61636535       1.93936460      -0.07615376       0.12124941      -0.07927669
H        0.63971350       3.15891591       1.22593266       0.04279425      -0.03939395      -0.01768103
N       -0.06912867       2.31143017      -1.09744915      -0.00943201      -0.06006483       0.01425925
H       -1.08235512       2.22064896      -1.07806388      -0.00007379      -0.01071499       0.03393660
H        0.22892207       1.97338992      -2.00680289      -0.02487288      -0.05397895       0.06557873
