17
Properties=species:S:1:pos:R:3:forces:R:3 Coordinates=T from=T ORCA-job=T run=T Energy:=T 53.6130344=T energy=-92423.53757562056 pbc="F F F"
C        0.02235501      -0.08781402       0.02166517       0.00841378       0.00128296       0.01666351
H        1.64880912       1.22539799      -0.02248227      -0.00412225       0.00360333      -0.04215494
Br      -2.03208701      -0.10284971      -0.02110871       0.00303031       0.00359273       0.00844525
Cl       3.79951110       0.52745329       1.10884517      -0.00674225      -0.00377456       0.01548486
C        0.55082644       1.33161307       0.00727896      -0.01056509      -0.01005675      -0.00377480
H        0.22274558       1.82327225      -0.90814330      -0.00093842       0.00409815       0.00186254
N        0.34979127      -0.78434255      -1.34320393       0.01002345       0.00538952      -0.01353814
O        0.43507957      -0.07775120      -2.33152704      -0.01411894       0.02120337      -0.00355653
O        0.47762637      -1.99578945      -1.33786143       0.00415603      -0.00492600       0.02054651
C        0.50425311      -0.94636175       1.16014165       0.00202352       0.00321736       0.00517164
H        1.60285030      -0.90808650       1.16650787       0.01455340       0.00696391       0.00740819
H        0.15581707      -0.52619524       2.10386985      -0.02377702      -0.00737745       0.00164001
H        0.15616338      -1.97221445       1.06607243       0.00082974       0.00134378       0.00665453
C        0.20470055       2.17090388       1.23968439       0.00471708       0.00511735      -0.02470178
H       -0.87276087       2.21901370       1.42546189       0.00871026      -0.02643581       0.00726125
H        0.71457868       1.79937361       2.13095177      -0.01900555      -0.01149807      -0.02914764
H        0.55974782       3.19111888       1.07474271       0.02413358       0.01158231       0.01958066
