15
Properties=species:S:1:pos:R:3:forces:R:3 Coordinates=T from=T ORCA-job=T run=T Energy:=T 188.5289938=T energy=-26538.17864086619 pbc="F F F"
C        0.07924314      -0.12208794      -0.08128545      -0.02531002       0.03358743      -0.05652318
H        1.65293106       1.33527111      -0.23504044       0.09149253      -0.00474307      -0.00082564
F       -1.29821830      -0.18070034      -0.26693881      -0.06158733       0.00162351       0.04161584
Cl       3.58931226       0.87990341       1.22907986      -0.01875127      -0.01641819      -0.01064127
C        0.55604039       1.32542544      -0.16261539       0.02648765      -0.03144666      -0.03350223
H        0.36408921       1.79277527       0.80742417      -0.08484536       0.00489334      -0.03913520
N        0.60048930      -0.93831329      -1.32442635      -0.01605314      -0.00342213       0.00375447
O        0.91174933      -0.31447159      -2.32063428       0.05313574       0.05100912       0.02815064
O        0.58688567      -2.15331220      -1.22713382      -0.03112599      -0.02398927       0.02449823
C        0.45574162      -0.83354827       1.19094176       0.01082736       0.04268993      -0.11697477
H        0.10053009      -1.86158628       1.14120649       0.03816492      -0.00885389       0.04674941
H        1.53874204      -0.78840351       1.33374062       0.04465169       0.01753243       0.02454966
H       -0.01870169      -0.31685570       2.02724930      -0.02525158      -0.00868810       0.01330556
C       -0.08184903       2.11680395      -1.21081993      -0.03596239      -0.11378441       0.03001983
N       -0.60830845       2.75875624      -2.01081388       0.02644144       0.07219713       0.02974609
