16
Properties=species:S:1:pos:R:3:forces:R:3 Coordinates=T from=T ORCA-job=T run=T Energy:=T 54.3484958=T energy=-83055.08783219056 pbc="F F F"
C        0.10288974      -0.11532625      -0.08156223      -0.03829634       0.13736602       0.12970649
H        1.63778868       1.31856221      -0.44574270       0.03785091      -0.06744844      -0.09842774
F       -1.27311877      -0.12274239       0.12312215       0.00593876       0.03832872      -0.07205801
Br       3.73501348       1.05385273       2.25807950      -0.06512333       0.01589263      -0.04437151
C        0.57461199       1.31788802      -0.21570528       0.07718878       0.05461782       0.10084888
H        0.50901935       1.74751308       0.79153987      -0.05673956       0.09470014       0.02801039
N        0.30329765      -0.86901540      -1.42470923      -0.05314722       0.00861820       0.05270199
O        1.37023951      -0.70737411      -1.98717725       0.04523424      -0.05311155       0.02176367
O       -0.59692095      -1.60087029      -1.79733264       0.04088224      -0.00621474      -0.04991434
C        0.76873019      -0.87778634       1.04432067      -0.01544338      -0.01785840      -0.08350653
H        0.53954092      -1.94125386       0.95200494       0.02451613      -0.05916736       0.07583113
H        1.84728998      -0.69389509       1.08211568      -0.04785231      -0.03104162      -0.00976973
H        0.34790875      -0.49811197       1.98031195       0.09177311      -0.08598278      -0.06458981
N       -0.17990469       2.02885739      -1.25162612      -0.05913130      -0.03673527       0.09877702
H        0.25510322       2.93244431      -1.41048201      -0.06100844      -0.04641612      -0.00541470
H       -1.12254691       2.19956780      -0.91082548       0.06490851       0.04742748      -0.07848325
