19
Properties=species:S:1:pos:R:3:forces:R:3 Coordinates=T from=T ORCA-job=T run=T Energy:=T 108.5973366=T energy=-14094.066267956963 pbc="F F F"
C        0.03943662       0.00972896       0.06760945      -0.01042277       0.00275518       0.03166704
H        1.63260433       1.35347573      -0.15271308       0.00304076       0.00077111      -0.02376996
F       -1.37228353       0.03511519      -0.05031032      -0.02089736      -0.00127399      -0.03348476
H        3.05261037      -0.18147488       0.06405625       0.01172224      -0.01386182      -0.00285251
C        0.55320560       1.46656352       0.01280665      -0.00107938      -0.00352674      -0.00519649
N        0.44805416      -0.80099157      -1.20571331       0.02529049      -0.01013265      -0.01202692
O        0.58264525      -0.19318902      -2.27387638       0.01189472       0.03348746       0.00113453
O        0.32720097      -2.02340506      -1.13518332       0.01973854      -0.01836530       0.00461726
C        0.40271844      -0.79331936       1.29048500      -0.01822889      -0.00314624       0.03437672
H        1.49596664      -0.79588982       1.36042019      -0.00916390      -0.01273724       0.00082492
H       -0.05121546      -0.33785555       2.17209353      -0.00035450       0.03499844       0.03070350
H        0.03262270      -1.81216711       1.18587670      -0.01089738      -0.00166677      -0.02696583
C        0.32647360       2.18938850       1.34529751       0.00671463       0.00158313      -0.00929568
H       -0.73427483       2.19471932       1.62725843       0.00851452      -0.00662289       0.00220962
H        0.89931824       1.74793475       2.16320817       0.01729895      -0.00440653      -0.02420327
H        0.64411194       3.22678436       1.22142644      -0.00285023       0.00369192       0.00147530
N       -0.02976394       2.28446789      -1.06011085      -0.01729810      -0.00341491       0.00437833
H       -1.04417751       2.21756568      -1.00452389      -0.01358363      -0.00896655       0.02538161
H        0.22255548       1.84052266      -1.93748575      -0.00013427       0.00930075       0.00520040
