15
Properties=species:S:1:pos:R:3:forces:R:3 Coordinates=T from=T ORCA-job=T run=T Energy:=T 51.2486704=T energy=-14029.918781152697 pbc="F F F"
C        0.27216196      -0.01344355       0.13297851      -0.00913143       0.01944008      -0.02327162
H        1.81296291       1.49220796       0.19781217       0.00680193       0.01613144       0.03347299
F       -1.08030361      -0.02931361      -0.13511629      -0.03401635      -0.01131393      -0.00192796
H        1.99056377      -0.70530019      -0.79102520       0.01970476      -0.00231064      -0.00431847
C        0.72018866       1.44796563       0.13269350      -0.00834988       0.00695657       0.00406362
H        0.45840294       1.79984655      -0.87274401       0.00226179      -0.01606494       0.00787648
N        0.98968409      -0.69451367      -1.10918127       0.02702085      -0.00543715       0.01765078
O        0.90111034       0.12790890      -2.17521589      -0.01205250       0.00918234      -0.00681385
O        0.56042278      -1.95400771      -1.21795016      -0.02981593      -0.02553014       0.00629460
C        0.52328990      -0.82570876       1.38059716       0.00084938       0.01661038      -0.02831234
H        1.58841606      -0.82451888       1.63614648       0.02365205      -0.00391003      -0.00129578
H       -0.03927234      -0.43257529       2.23244887      -0.01337299      -0.01722965      -0.00701115
H        0.22011045      -1.84578493       1.14572540       0.00450499      -0.00002695       0.00651424
C        0.13549764       2.25659263       1.19187065       0.00150110       0.00499611       0.01233640
N       -0.32339583       2.89267948       2.04116669       0.00829337       0.00017294      -0.01723256
