18
Properties=species:S:1:pos:R:3:forces:R:3 Coordinates=T from=T ORCA-job=T run=T Energy:=T 172.5109593=T energy=-27606.845077935443 pbc="F F F"
C        1.15808159      -0.06011597       0.03014774      -0.05405101      -0.11327421      -0.13876689
H        1.82674745       1.88100251      -0.34991889       0.01868231       0.10260392      -0.05772390
Cl      -3.00774626      -0.07000075       1.18682929       0.10575944       0.04351374       0.06489402
F        2.52901999      -0.14211723       0.32008874      -0.01886131      -0.02013169       0.06689070
C        0.85410183       1.45621254      -0.09045325       0.01959553       0.05863903       0.05779579
N        1.12181502      -0.73914595      -1.38919092       0.08217124      -0.05041648       0.05596523
O        1.48716532      -0.04128343      -2.31938084       0.11591308       0.04188685      -0.07454442
O        0.83453549      -1.91746110      -1.46336169      -0.07153666       0.02380519       0.17479710
C        0.39333973      -0.82899841       1.06000663      -0.05272977       0.00698508       0.02685941
H        0.59266794      -0.33625299       2.01422415      -0.08776664      -0.16950503       0.03502909
H       -0.69819033      -0.80782720       0.90350744       0.09196828       0.05921987      -0.03620286
H        0.75638402      -1.85224653       1.11951473       0.00764598      -0.08479642      -0.12896732
C        0.37525817       2.06125848       1.24817180       0.05119935       0.00920750      -0.01198592
H       -0.60371571       1.65684242       1.52592780      -0.00436232       0.16584241      -0.06420223
H        1.09149907       1.84611896       2.04460714       0.05442392      -0.03712393      -0.02972252
H        0.32800963       3.14738430       1.14107559      -0.16204312      -0.02554770       0.02839626
C       -0.04576934       1.87644658      -1.16975353      -0.09826989       0.10465136      -0.07618311
N       -0.68590986       2.36322868      -1.99671143       0.02236555      -0.12092652       0.11135324
