14
Properties=species:S:1:pos:R:3:forces:R:3 Coordinates=T from=T ORCA-job=T run=T Energy:=T 582.8404458=T energy=-84495.87472243306 pbc="F F F"
C        1.22118389      -0.00247082      -0.05991562      -0.07721672      -0.10979854      -0.12792157
H        1.00164903       1.94083102       0.67330560      -0.09342428       0.00809438       0.04845125
Br      -2.35658855      -0.09527165       1.71965593       0.09307160       0.04486927      -0.04382900
F        2.60282876       0.16344804      -0.20257229       0.06860592       0.07646332       0.03743333
C        0.52990988       1.35531535      -0.12199864       0.04849036      -0.04852158       0.04459960
H       -0.52753347       1.22914240       0.16215428       0.00287539      -0.01654318      -0.07898579
N        0.96614693      -0.88618243      -1.38220251      -0.01817166      -0.11418940      -0.06807120
O        0.89876314      -0.33658383      -2.46262085      -0.04416582      -0.04955926      -0.02820372
O        0.92795481      -2.09053710      -1.19097982      -0.01572146      -0.14057232      -0.21479751
N        0.90557768      -0.73201218       1.05868766       0.07215814       0.13405517       0.13156931
H        1.06588146      -1.71770702       0.89119214       0.11877563      -0.05859851       0.09786951
H       -0.06698324      -0.59765410       1.36975050      -0.17132911       0.10929773       0.10282632
C        0.66124131       2.11699510      -1.36041574      -0.01499281       0.20827224      -0.05066280
N        0.72594436       2.82328387      -2.27078773       0.01828910      -0.05478660       0.15214076
