13
Properties=species:S:1:pos:R:3:forces:R:3 Coordinates=T from=T ORCA-job=T run=T Energy:=T 55.3340475=T energy=-24465.765719808034 pbc="F F F"
C        0.14448136       0.01668441       0.15388650      -0.00939201       0.01752839       0.03538222
H        0.66868192       1.90942177       0.92352822      -0.00588044       0.00138775      -0.03100385
F       -1.22328274       0.12825392       0.46799358      -0.00195031      -0.02524578      -0.00364553
Cl       3.92985723      -0.24510811       0.51199675       0.01641660      -0.02087615       0.03366657
C        0.75150003       1.37799706      -0.02685208       0.01319744       0.01313123      -0.02412843
H        0.22592172       1.92143636      -0.80855975      -0.02266261       0.03299861       0.00370590
H        1.80948752       1.27451583      -0.27561961       0.03524412       0.03060967       0.00579117
N       -0.01932121      -0.70620842      -1.29939775      -0.01806282       0.01060835       0.00949695
O       -0.09430092      -0.01165512      -2.29863110      -0.01758071      -0.03478337      -0.02079481
O       -0.10087335      -1.92482618      -1.28269467      -0.00776288       0.01632447      -0.02626276
N        0.79053339      -0.79675147       1.05181385      -0.00127581      -0.00452034       0.01792368
H        1.82004742      -0.69701832       1.00575144      -0.00738200      -0.00769643      -0.00280649
H        0.50763299      -1.76476005       0.95697578       0.02273224      -0.02024810      -0.00388085
