14
Properties=species:S:1:pos:R:3:forces:R:3 Coordinates=T from=T ORCA-job=T run=T Energy:=T 205.7919022=T energy=-84496.00133973372 pbc="F F F"
C        1.13028572      -0.04009215       0.20740838      -0.01854149      -0.07351163       0.10132696
H        1.03818797       1.84918185      -0.79859870      -0.00959104       0.00642400       0.01660394
Br      -2.79333617      -0.19236253       0.16380997       0.04663715       0.00426334      -0.02642334
F        2.45291633       0.03489360       0.64229351       0.00759075      -0.01890461      -0.01954860
C        0.54622942       1.35556203       0.04084060      -0.07041228       0.00979160      -0.12991586
H       -0.52925030       1.25736157      -0.18560260       0.04296591      -0.00715303       0.05111858
N        1.41312039      -0.68798453      -1.27180098      -0.00286525       0.03559387       0.06658828
O        1.52869510       0.05249791      -2.23301726       0.00643965      -0.01442727      -0.03407071
O        1.53852711      -1.90064797      -1.28902737      -0.03520899       0.08063209      -0.01388824
N        0.38781631      -0.86460333       1.00444997      -0.04703558      -0.03979708       0.06286415
H        0.70122684      -1.82493684       0.98509693       0.03314606      -0.07755286      -0.03888033
H       -0.63589713      -0.78221556       0.86800234       0.03866912       0.06205734      -0.01096478
C        0.72950075       2.14256264       1.25511013      -0.01442009       0.00117450       0.04691244
N        0.87914313       2.77332723       2.20843611       0.00479187       0.03776071      -0.06765177
