17
Properties=species:S:1:pos:R:3:forces:R:3 Coordinates=T from=T ORCA-job=T run=T Energy:=T 80.0434905=T energy=-21729.095827967376 pbc="F F F"
C        0.08801768      -0.08042681       0.01789298      -0.02180323      -0.03092089      -0.09429000
H        1.52229373       1.48876174      -0.32750790      -0.07069043       0.03165151       0.02540490
F       -1.32675303      -0.20693634      -0.12373862       0.08400159      -0.05196155       0.07718235
F        3.16219885      -0.13034623       1.13619264       0.00949469       0.00993128       0.02481484
C        0.44893988       1.39758729      -0.17532019      -0.02639750      -0.00430241      -0.04596754
N        0.50672647      -0.83544628      -1.51698132       0.06758979       0.04898684       0.07660838
O        1.37509498      -0.33390200      -2.21932141       0.05533359       0.06391338       0.02858117
O        0.03987221      -1.95149342      -1.70672537      -0.10581322      -0.04605424       0.02143031
N        0.65746350      -0.66549407       1.04517695      -0.05073243       0.08963643      -0.06875802
H        2.20453977      -0.36802288       1.17766657       0.00858589       0.00700025      -0.02827328
H        0.30575831      -1.60671785       1.16576979      -0.03780857      -0.18740068      -0.02667683
N        0.19475995       2.06543589       1.23527620       0.04984313       0.11496243      -0.04487741
O        1.14502466       2.23740230       1.97333674       0.01226972       0.02198866      -0.01013212
O       -0.95626231       2.41627379       1.47141066      -0.00063645       0.01165935       0.03347510
N       -0.32434254       2.03071811      -1.18119114       0.00984840      -0.04580227       0.03462488
H       -0.08561126       3.00902489      -1.28397452       0.02690324      -0.00505944      -0.00176750
H       -1.31043992       1.94510486      -0.96373006       0.03349883      -0.01990129       0.00073891
