15
Properties=species:S:1:pos:R:3:forces:R:3 Coordinates=T from=T ORCA-job=T run=T Energy:=T 79.8005993=T energy=-17520.670519945626 pbc="F F F"
C        0.10601090      -0.11449171      -0.34914546       0.01572344      -0.07054855      -0.01992940
H        1.14514691       1.06958257      -1.82606928       0.05437853       0.00742385      -0.02412857
F       -1.19803974      -0.18294070      -0.85697822      -0.01885296      -0.02092125      -0.01581415
H        2.50569435       0.80238665       1.26485435      -0.02319368      -0.01474117      -0.02120517
C        0.84607408       1.12749366      -0.78802454      -0.06010509      -0.02725990       0.01524704
H        1.74646336       1.18324865      -0.05443947       0.01758838       0.01790658       0.02247568
N        0.74195700      -1.38771025      -1.24424451       0.02514658      -0.02548400      -0.02457518
O        1.10657908      -1.19779039      -2.39165592      -0.00040451       0.06881619      -0.07963658
O        0.76072167      -2.47294457      -0.68421147      -0.04887138       0.02733177       0.07782387
N        0.18211193      -0.38075993       0.97706095      -0.01460706      -0.01425153       0.03550321
H        1.08617920      -0.01202873       1.37247658       0.07138623       0.04179835      -0.01442683
H        0.00101680      -1.34971539       1.20241048      -0.01845394      -0.04482648       0.01712656
N        0.08470492       2.37196701      -0.62070666       0.07666865      -0.00132385       0.05802103
O       -0.58330552       2.52383788       0.39838917      -0.04634534       0.04937188      -0.03907951
O        0.24896407       3.24504861      -1.48331566      -0.02873549      -0.02412784      -0.00147354
