16
Properties=species:S:1:pos:R:3:forces:R:3 Coordinates=T from=T ORCA-job=T run=T Energy:=T 52.4167572=T energy=-25534.84351865225 pbc="F F F"
C        0.10164059      -0.05421444       0.07402097       0.00084328       0.03852441      -0.00736091
H        1.74419088       1.24830453      -0.27439276       0.01080173       0.00602651      -0.02475861
F       -1.29194205       0.01359904       0.27191437      -0.06025685       0.00235112      -0.00887172
Cl       3.83589037       0.13132511       1.13704341       0.01401273      -0.01933567      -0.00610879
C        0.65556913       1.33202320      -0.20937228       0.01131794       0.01118248      -0.04816325
H        0.45735102       1.86986941       0.72503899       0.05006652      -0.03485890      -0.03611015
N        0.06720816      -1.04486818      -1.23310749       0.05766401      -0.00935905       0.05074639
O        0.07400872      -0.58482512      -2.36140774       0.01907453       0.04098714      -0.04035953
O       -0.00534244      -2.23618161      -0.97490861      -0.00288147      -0.06195265       0.01369286
N        0.72031688      -0.67417464       1.12911123      -0.00795372      -0.00485389      -0.01966628
H        1.73533129      -0.47545966       1.18925099       0.00052384       0.00077936       0.06691872
H        0.52209491      -1.66599968       1.16949153      -0.00556332      -0.00714376      -0.00100981
C        0.06639771       2.12699728      -1.37843861      -0.01942907      -0.00132671       0.01785568
H        0.43669924       1.78073633      -2.34204219      -0.01225931      -0.00302358       0.04672561
H       -1.02453862       2.05375803      -1.39419848      -0.00740796       0.06274336      -0.00354278
H        0.33951564       3.18235849      -1.26613084      -0.04662552      -0.03296587       0.00674126
