18
Properties=species:S:1:pos:R:3:forces:R:3 Coordinates=T from=T ORCA-job=T run=T Energy:=T 170.8694038=T energy=-31097.78478219165 pbc="F F F"
C        0.20911417      -0.13212254      -0.10682688      -0.09737084       0.11347151       0.05865547
H        1.51029794       1.42988136      -0.70014497      -0.07495970       0.09396960      -0.01128719
Cl      -2.16033877      -0.32253053      -0.92686741      -0.05126804      -0.00568169       0.05516341
F        2.70669401      -0.18091474       2.05158794      -0.03920350       0.00938873       0.05492888
C        0.53288415       1.36206599      -0.21744341      -0.15209117       0.05875332      -0.11428612
N        0.54247441      -1.00210881      -1.34464093       0.07408221      -0.06552027       0.10996065
O        0.98185005      -0.44219397      -2.33066524      -0.00721580       0.05066604      -0.07074962
O        0.46755268      -2.21104592      -1.18792827       0.03728440       0.04765754      -0.03648455
N        0.32919890      -0.70304192       1.02776520       0.16604292      -0.10940825       0.05238459
H        1.79665998      -0.37827704       1.80861977      -0.02562477       0.02618491       0.01926781
H        0.27937339      -1.71405806       0.89813295      -0.07253795      -0.03607736      -0.02577320
C        0.50655389       2.06804444       1.13732174       0.01994418      -0.05031285      -0.09115062
H       -0.47647927       1.95293560       1.59322577       0.08052043       0.03978266       0.02133517
H        1.26608439       1.64525613       1.78911463       0.01864481      -0.03141646      -0.00443692
H        0.71612133       3.13411379       1.00134053      -0.03090234      -0.09373918       0.01222381
N       -0.39165763       2.17553117      -1.16800879      -0.01958787      -0.05572005      -0.06034805
O       -1.33502382       2.76035914      -0.67048011       0.03274077       0.03080785       0.12546505
O       -0.06442054       2.25131632      -2.33709200       0.13758576      -0.01472593      -0.08991624
