14
Properties=species:S:1:pos:R:3:forces:R:3 Coordinates=T from=T ORCA-job=T run=T Energy:=T 83.7694203=T energy=-23481.90307110388 pbc="F F F"
C        0.25671519      -0.09778319       0.02750357       0.00188915       0.00207308      -0.01148127
H        1.66357396       1.32283019      -0.00302053       0.00148558       0.00096159      -0.01260161
Cl      -1.59347658      -0.44205802       0.32609815       0.01858442      -0.02006079       0.00480790
F        2.68174888       0.04789074      -0.18721239      -0.01465465      -0.01654468       0.00626041
C        0.53908513       1.41523260      -0.00813373      -0.00579473       0.00540948      -0.00710302
H        0.77058148      -0.55246046       0.86447574      -0.03095583       0.01025781      -0.01473976
C        0.60843540      -0.79010494      -1.20590243       0.01448887      -0.00398032       0.00976995
N        0.67638004      -1.36981361      -2.20317989       0.00783267       0.00356245       0.00757140
C        0.08343861       2.08431948       1.20041862      -0.01045487      -0.01556560      -0.00322268
N       -0.24167539       2.66136868       2.14766814       0.01840493       0.01875268       0.01551697
C        0.05228650       2.12092096      -1.27863836      -0.01001177       0.01261793      -0.02401470
H        0.57529902       1.70373511      -2.14020599       0.01362813      -0.00692462      -0.01656773
H       -1.02354682       2.00408761      -1.43444673      -0.02973662      -0.00452092       0.02828576
H        0.27524804       3.18905378      -1.23108079       0.01855856       0.01707002       0.01413429
