15
Properties=species:S:1:pos:R:3:forces:R:3 Coordinates=T from=T ORCA-job=T run=T Energy:=T 61.8699065=T energy=-79999.10235443182 pbc="F F F"
C        0.35397146      -0.07045364      -0.20751773      -0.01574240      -0.01425330       0.00588406
H        1.65692463       1.48687950      -0.52912371      -0.00149476      -0.00426140       0.00891633
Br      -1.55741803      -0.58747488       0.22594413       0.02580742       0.02699164      -0.00695139
F        1.94686866      -0.02160494       1.86337140       0.00129999      -0.00603941       0.01240680
C        0.58666657       1.45181129      -0.24585002      -0.00395384       0.02374019      -0.01790255
H        0.99050514      -0.40356481       0.68280161       0.00576272       0.01078872       0.03896770
C        0.69937042      -0.72820885      -1.44335721       0.01630588       0.00672221      -0.02872368
N        1.01887440      -1.23987556      -2.43127691      -0.00114197      -0.01433880       0.00299455
N        0.36853591       1.98413437       1.09521749       0.01474305       0.00306579      -0.01791755
H        0.74582092       2.92920280       1.12307750       0.00763695      -0.01658998       0.00218266
H        0.96693994       1.38276002       1.70085919      -0.00372354      -0.01708800      -0.01157543
C       -0.21818449       2.20858147      -1.29908485      -0.01743324       0.00240018      -0.01073737
H       -0.05979609       1.79169424      -2.29917227      -0.02232500       0.01386649       0.00340277
H       -1.28339279       2.16620736      -1.05926229       0.00720301       0.01798520      -0.01168446
H        0.08415870       3.26345053      -1.32578425      -0.01594780      -0.03429349       0.02512766
