15
Properties=species:S:1:pos:R:3:forces:R:3 Coordinates=T from=T ORCA-job=T run=T Energy:=T 78.2305082=T energy=-147326.3085694748 pbc="F F F"
C        0.23587657      -0.08764390      -0.25324743      -0.06737481      -0.05871697      -0.04644148
H        1.60438661       1.44332928      -0.53285550       0.10959749      -0.03258763      -0.09031457
Br      -1.70695633      -0.49815322       0.11365156       0.01000303      -0.00710435       0.05981774
Br       3.08675340       0.02866608       1.99455677       0.00457332      -0.03000783       0.01429762
C        0.54247434       1.42238998      -0.24588867       0.03961535      -0.03265625       0.06024892
H        0.79181052      -0.55963696       0.56630802      -0.03016479       0.06982574      -0.01914456
C        0.56626189      -0.76171672      -1.50026742       0.01824520       0.00419613       0.06225074
N        0.83436173      -1.32210679      -2.47334424      -0.00719934       0.09197631      -0.03128852
N        0.35528599       1.92673756       1.10943445      -0.05394673       0.01780080       0.05848860
H        0.60826092       2.91116265       1.11561439      -0.01942957       0.03269380      -0.00738766
H        1.04959845       1.46437714       1.70801397      -0.00010687      -0.01424053      -0.02465891
C       -0.26240796       2.25435017      -1.24034838       0.02843803       0.01747191      -0.03047568
H       -0.25177119       1.83199293      -2.24778807      -0.00612535      -0.08556346      -0.01357424
H       -1.29639377       2.35468674      -0.90216095       0.01269350      -0.02416022      -0.03413021
H        0.17600545       3.25485936      -1.31144200      -0.03388496       0.05185081       0.04127125
