13
Properties=species:S:1:pos:R:3:forces:R:3 Coordinates=T from=T ORCA-job=T run=T Energy:=T 105.1415797=T energy=-91245.70369654158 pbc="F F F"
C        0.15551653      -0.08648260      -0.22896346       0.02534919      -0.05289556       0.00481362
H        1.58550112       1.43310539      -0.47089302      -0.01659468      -0.00132489      -0.01632382
Cl      -1.59667636      -0.40133655       0.17969053       0.02294843      -0.02048042       0.00018424
Br       3.11582976       0.17172503       1.77888513      -0.01389131      -0.01254638       0.00352783
C        0.51715391       1.41850904      -0.19501306      -0.00554913      -0.00715892      -0.00132791
H        0.76306356      -0.55857439       0.55207450      -0.00866013       0.03009833      -0.01195176
C        0.45251716      -0.70005173      -1.51717533      -0.04634525       0.03785512       0.09169679
N        0.68711547      -1.17332921      -2.54084666       0.03557519      -0.05907266      -0.09718041
N        0.28515458       1.94077764       1.14793090       0.00562651       0.00981913      -0.00571483
H        0.43518886       2.94526188       1.13295560       0.01466274       0.00889505       0.02470514
H        1.03892603       1.54053355       1.72273485      -0.01793159       0.02472842      -0.00581480
C       -0.22713958       2.19139936      -1.19912918       0.02496835       0.01379175       0.03189473
N       -0.77655155       2.83054744      -1.98547300      -0.01805744       0.02601986      -0.01400195
