12
Properties=species:S:1:pos:R:3:forces:R:3 Coordinates=T from=T ORCA-job=T run=T Energy:=T 30.3042158=T energy=-35273.80832672653 pbc="F F F"
C        0.28938214      -0.09521723      -0.22686616      -0.01404459      -0.02122572      -0.02912238
H        1.78642807       1.36813890      -0.64746813      -0.02735768       0.02980238       0.00107627
Cl      -1.44052834      -0.19380605       0.39320330       0.03884834      -0.00530219       0.00551349
Cl       3.02261830      -0.09617195       1.49980048       0.01092017      -0.01267193       0.02879704
C        0.75701946       1.34922752      -0.28468223      -0.02306372      -0.01447639      -0.00252132
H        0.94227913      -0.55043628       0.53795819      -0.00315423       0.02497928      -0.03627477
H        0.73166326       1.78375005       0.70736376       0.00522205       0.03568222       0.02355295
C        0.39023098      -0.85088812      -1.46708737      -0.02603767      -0.00056631       0.00230484
N        0.48920190      -1.49957107      -2.41497458       0.00379664      -0.01412247       0.00977321
N       -0.07613614       2.22868376      -1.18782989      -0.01532483      -0.00932517       0.02455250
O       -0.46523568       3.29208262      -0.72659570       0.03834200      -0.00298295       0.00050525
O       -0.28396388       1.83813395      -2.32640251       0.00742054       0.00259301      -0.04088364
