12
Properties=species:S:1:pos:R:3:forces:R:3 Coordinates=T from=T ORCA-job=T run=T Energy:=T 31.2096232=T energy=-92794.6477353613 pbc="F F F"
C        0.30354875      -0.08729532      -0.24408193      -0.02112234      -0.01895696      -0.01186051
H        1.77740798       1.34899443      -0.80131588       0.00072853       0.03842815       0.01223950
Cl      -1.36937655      -0.16643370       0.50872484       0.02492610       0.00457973      -0.00874533
Br       3.09990292      -0.06424623       1.68235302       0.00972826      -0.01822722       0.00419700
C        0.78103221       1.35114364      -0.35778365       0.00003398      -0.01674325       0.01848845
H        1.00634218      -0.53217088       0.48571934      -0.00411903       0.00084331      -0.02511921
H        0.83451685       1.79443034       0.63022582       0.00153807       0.02913115      -0.00078939
C        0.30082260      -0.85946458      -1.47793045      -0.02966007      -0.00165330       0.01970352
N        0.31249882      -1.52163335      -2.42178010       0.02405537      -0.01363997       0.00318270
N       -0.10069448       2.22413445      -1.21651359      -0.03290780      -0.00632065      -0.01539896
O       -0.55832937       3.23516731      -0.70460329       0.02765203      -0.00955376       0.00015762
O       -0.27984233       1.87783100      -2.37548613       0.00196821       0.00715543      -0.00699711
