12
Properties=species:S:1:pos:R:3:forces:R:3 Coordinates=T from=T ORCA-job=T run=T Energy:=T 33.4877678=T energy=-78929.77803552577 pbc="F F F"
C        0.31400947      -0.01419140      -0.21596044      -0.01379811      -0.00919904       0.01305489
H        1.50398595       1.64245769      -0.59172954       0.00535733       0.03784356      -0.02975149
Br      -1.56609684      -0.57497280       0.26727842      -0.02198075      -0.00465829      -0.00856274
F        2.01380749       0.00902632       1.76109261      -0.00979115       0.00428231       0.01117776
C        0.48158117       1.50530830      -0.19484307       0.00246437       0.03289519       0.01810740
H        1.00420800      -0.36077055       0.63325942       0.00950821      -0.02404895       0.00032949
H       -0.21810396       2.00234854      -0.87781223      -0.00841761      -0.01819356      -0.04022154
C        0.61981717      -0.59951992      -1.49814640       0.00856390      -0.01540649      -0.02629141
N        0.90571028      -1.06215062      -2.52014107      -0.00599227       0.01698779       0.02173923
N        0.32361012       1.99551062       1.16786648      -0.00144699       0.00839994       0.04924169
H        0.65606849       2.95581970       1.20739507       0.00925090      -0.00050509      -0.01973909
H        0.98394855       1.40528635       1.71330795       0.02347509      -0.01961041       0.01027914
