15
Properties=species:S:1:pos:R:3:forces:R:3 Coordinates=T from=T ORCA-job=T run=T Energy:=T 191.7269025=T energy=-36342.847663347704 pbc="F F F"
C        0.84911905      -0.04009159      -0.06818554      -0.04421481      -0.04512306       0.05742682
H        1.83148116       1.88556633      -0.33821844      -0.04136952      -0.05097875      -0.03333584
Cl      -2.43314459      -0.30614670       0.35406203       0.01714321      -0.03445600      -0.02854799
Cl       2.22373200      -0.67050507       0.98297001      -0.00622105       0.05492948       0.01337035
C        0.82868081       1.49241679      -0.14627554      -0.00879224      -0.02378920      -0.03699127
H       -0.11371901      -0.40059902       0.34613311       0.04207275       0.01978442       0.02460027
C        1.06341332      -0.61675082      -1.39075067       0.01284539       0.07368449       0.20365565
N        1.27568292      -1.07125654      -2.42768122      -0.00196585      -0.04932243      -0.17653120
N        0.48885291       2.13347368       1.21414204       0.06299119      -0.00194493      -0.00050586
O        0.43881925       3.35884680       1.19800807       0.01315577      -0.01808113       0.06436087
O        0.35474000       1.43768622       2.19657795      -0.04696199      -0.01407032      -0.05990775
C       -0.17084609       1.98943819      -1.19376537      -0.01083594       0.03576390      -0.01166764
H        0.22962887       1.81522586      -2.19361533       0.00673052      -0.01627825      -0.01928613
H       -1.12402894       1.46323243      -1.08660853       0.01581572       0.03620020       0.05925865
H       -0.31869352       3.05882848      -1.05635124      -0.00326082       0.03932033      -0.04437749
