13
Properties=species:S:1:pos:R:3:forces:R:3 Coordinates=T from=T ORCA-job=T run=T Energy:=T 57.8103977=T energy=-148766.2163684865 pbc="F F F"
C        0.20948635      -0.08266536      -0.14951346      -0.01630605      -0.01040930       0.00084673
H        1.61212231       1.45480831      -0.20216325       0.01023692      -0.00139128      -0.00035452
Br      -1.75263714      -0.41827717       0.24907914       0.00917897      -0.03260536      -0.00470790
Br       3.41761660      -0.15058990       0.91974181      -0.00585682       0.00196587       0.00372743
C        0.51639806       1.42390050      -0.11427588      -0.00412652       0.00304321      -0.02176317
H        0.78246008      -0.58244817       0.63460268      -0.01277813      -0.01145084       0.00531327
C        0.48873780      -0.68871103      -1.43944019       0.02646824       0.00643459      -0.02801660
N        0.67965097      -1.20381956      -2.45336314      -0.01889422       0.01429667       0.02505865
C        0.17610485       2.00709863       1.20069968      -0.00775098      -0.01361226       0.01459053
N       -0.13302945       2.55573654       2.16724681       0.00735388       0.03868685       0.00988671
N       -0.10136879       2.13162699      -1.22982228      -0.00962488       0.01277746      -0.03063979
H        0.27477019       3.06996734      -1.29681780       0.03024572       0.00873103       0.00365227
H       -1.10474207       2.20886879      -1.09679718      -0.01152505      -0.01287925       0.02421331
