14
Properties=species:S:1:pos:R:3:forces:R:3 Coordinates=T from=T ORCA-job=T run=T Energy:=T 98.8591431=T energy=-36779.48576473539 pbc="F F F"
C        0.05272847      -0.11914698      -0.11805738      -0.01939427       0.00390304      -0.00263746
H        1.60667905       1.29946813      -0.04910717      -0.03004251      -0.04566985       0.05935763
Cl      -1.79392002      -0.26501812       0.03014235       0.01397569       0.00031623       0.03585376
Cl       3.50489110       0.32923315       0.51453428      -0.00065898       0.02621619      -0.02184088
C        0.49369332       1.34021827      -0.10503359       0.00315363      -0.01162322      -0.06367081
H        0.46953156      -0.62752523       0.74753874      -0.02621686      -0.04202434      -0.01986497
C        0.43066178      -0.78403943      -1.35986852       0.03254887      -0.00543673       0.06573869
N        0.67366269      -1.33533609      -2.34201106      -0.01346618      -0.00795308       0.03563080
N        0.10079921       1.97657447       1.27087725       0.03156833      -0.03650703      -0.03123785
O       -0.14072082       3.17776861       1.26273614      -0.01940615      -0.06149148      -0.03801458
O        0.11850371       1.26839151       2.26140489      -0.00646645      -0.00095910      -0.02285158
N        0.03856853       2.07712939      -1.22076154       0.00402357       0.10632466       0.02899528
H        0.55140153       2.94194741      -1.30871121       0.01410758       0.08560630      -0.02886164
H       -0.95290316       2.28641707      -1.17482447       0.01748423      -0.01584854       0.00765175
