14
Properties=species:S:1:pos:R:3:forces:R:3 Coordinates=T from=T ORCA-job=T run=T Energy:=T 74.8374753=T energy=-22914.545613704726 pbc="F F F"
C        0.77866147       0.01137669      -0.11542544      -0.02605215       0.01536717      -0.03878758
H        1.72645785       1.91550928      -0.58311206      -0.00691170      -0.00038488       0.01731625
F       -1.82975011      -0.00199299      -0.03552522      -0.01636263       0.01030227      -0.01844518
Cl       1.99928738      -0.62634718       1.13878472      -0.00833734       0.00855189       0.00288234
C        0.77611089       1.55975953      -0.14492875       0.02056722      -0.02312415      -0.01145621
H       -0.29383159      -0.27669861       0.16060230       0.01581536      -0.01447195      -0.00364546
C        1.14991070      -0.57611434      -1.38929683      -0.00254129       0.02203809       0.04295842
N        1.44773497      -1.08306079      -2.38428077      -0.00301363       0.02575211      -0.00009306
N        0.60527143       2.06570718       1.23745385       0.02873488       0.00035244      -0.03404924
H        0.36163885       3.05023552       1.17330614       0.01652600      -0.00604648       0.01370741
H        1.48615179       2.00166465       1.74298665      -0.01052463       0.01360822      -0.00496995
N       -0.31572014       1.91298679      -1.02047779       0.00842985      -0.00744141       0.03089862
H       -0.48731725       2.91394133      -0.98104045      -0.01840580      -0.01874819      -0.02620369
H       -1.14906973       1.35931939      -0.70111340       0.01254953      -0.00988085       0.02523926
