12
Properties=species:S:1:pos:R:3:forces:R:3 Coordinates=T from=T ORCA-job=T run=T Energy:=T 62.9283036=T energy=-92794.56436252985 pbc="F F F"
C        0.95153393      -0.08201389       0.03276511      -0.00318287       0.01927602      -0.01905066
H        1.15742827       1.97791897      -0.68064696      -0.00238532       0.02154027      -0.01262452
Br      -2.49409915      -0.14076454      -0.40234011       0.00862667       0.00597108      -0.01424731
Cl       2.61533121      -0.26606289       0.82113586       0.00039986      -0.00328949       0.01017708
C        0.52069992       1.37288167      -0.04196062      -0.02151805       0.01915466      -0.01394183
H        0.24237907      -0.64917165       0.63389371       0.01895336       0.00452371       0.00630268
H       -0.52769041       1.34186823      -0.39885351      -0.03063027       0.04490707       0.02361781
C        1.04908341      -0.63222738      -1.31445180      -0.00409720      -0.07763711      -0.04701509
N        1.19956304      -1.04117175      -2.38203696       0.01449410       0.01512959       0.06398822
N        0.47735905       2.05341159       1.29124950       0.03076769      -0.01897735       0.01814541
O        0.66837962       3.26508726       1.28385292      -0.01414609      -0.03533478       0.00888892
O        0.20831648       1.38521957       2.27510910       0.01034121       0.00136625      -0.02013664
