13
Properties=species:S:1:pos:R:3:forces:R:3 Coordinates=T from=T ORCA-job=T run=T Energy:=T 91.5668250=T energy=-18172.436624362446 pbc="F F F"
C       -0.06193734      -0.09872648      -0.06111659       0.00473350       0.01830448      -0.00205477
H        2.11882747       1.01591122      -0.02336047       0.01719434       0.03472718       0.00738687
F       -1.45627923      -0.41241110       0.00722156      -0.02575458       0.00533892      -0.01149882
F        2.97131112       0.61912788       0.12878536      -0.03411236       0.00994189      -0.00084644
C        0.22755739       1.35201781      -0.07564954       0.01540577      -0.01520699       0.01502660
H        0.37561602      -0.52864110       0.84060019      -0.01690019      -0.01026290      -0.01362896
C        0.44703951      -0.80366454      -1.24733479      -0.00485376      -0.03650921      -0.01091357
N        0.81060954      -1.40527457      -2.16070578       0.00981829       0.01804301       0.01824368
N        0.09292310       2.00652635       1.18786805       0.02006676      -0.02134170       0.00427796
O        0.05139530       3.24103950       1.21448510       0.00670708       0.02543416      -0.03388170
O        0.06677007       1.30855969       2.21662287       0.02817138      -0.00399454      -0.02924266
C       -0.02632533       2.13662228      -1.22596277      -0.01516974      -0.01694631       0.03463623
N       -0.20158113       2.73146929      -2.20658570       0.00527743      -0.00155963       0.02457724
