12
Properties=species:S:1:pos:R:3:forces:R:3 Coordinates=T from=T ORCA-job=T run=T Energy:=T 29.2871368=T energy=-18707.892986338826 pbc="F F F"
C        1.23690740       0.05902813       0.02452256       0.02923895      -0.05868857       0.01284648
H        1.81691435       2.08217268      -0.34115768      -0.00230443       0.01535764      -0.01323955
Cl      -2.41981382       0.23218980       1.10783277      -0.02246067      -0.00494813      -0.00626079
H        0.66987287      -1.38661765      -1.87281339      -0.03159185       0.03566946      -0.00862827
C        0.90382748       1.53771030      -0.05853692      -0.01309200      -0.06987975      -0.03462086
H        1.15877620      -0.37794728       1.01630349       0.03820903       0.01339251       0.00322336
H        0.16986323       1.68477261      -0.86688305      -0.01958783       0.03642487      -0.07910707
C        1.20870958      -0.80388453      -1.13056752      -0.03240709      -0.03645125       0.06271244
N        2.39648006      -0.49759019      -0.86593144       0.06200017       0.03585535      -0.01757139
N        0.43158430       2.01259034       1.24142966       0.03043756       0.00483294       0.07339412
H       -0.42523417       1.48862805       1.45565806      -0.06136203      -0.00369415      -0.02575569
H        0.12030699       2.97440952       1.13266091       0.02129397       0.03558582       0.03134558
