13
Properties=species:S:1:pos:R:3:forces:R:3 Coordinates=T from=T ORCA-job=T run=T Energy:=T 172.9966480=T energy=-27977.42492225207 pbc="F F F"
C        0.04013566      -0.03096304       0.01632423      -0.01013664       0.01447434      -0.04188607
H        1.73686192       1.28128927      -0.29396392      -0.01032305      -0.04641776       0.04499000
F       -1.36105254       0.09541428       0.10532699      -0.02733464      -0.03405434      -0.01930364
Cl       3.58546601       0.27073960      -0.08148911       0.03623914       0.03269673       0.00053608
C        0.63566975       1.37167850      -0.11448221       0.00476045      -0.02582154      -0.00263538
H        0.45283481       1.93372306       0.79640459       0.01652178       0.03402053       0.01775197
C        0.31971514      -0.95039895      -1.10467621       0.01069462       0.00370784       0.00720828
N        0.45554098      -1.73763350      -1.93279709      -0.02562299      -0.01682014      -0.00088555
C        0.46140517      -0.65925532       1.28766297      -0.02125922       0.02756918      -0.08888377
N        0.62275345      -1.16463280       2.30901702       0.02927952       0.01156610       0.04706780
N        0.01210870       2.14361754      -1.22666456       0.00053483      -0.03963832       0.00086012
O       -0.13351600       3.34428232      -1.04003880       0.01793767       0.06283001       0.02880351
O       -0.26224212       1.55457154      -2.26273061      -0.01605485      -0.03316802      -0.00486603
