14
Properties=species:S:1:pos:R:3:forces:R:3 Coordinates=T from=T ORCA-job=T run=T Energy:=T 92.7553825=T energy=-23482.671106664486 pbc="F F F"
C        0.02460661      -0.11495596      -0.05795697       0.12537941       0.00409498      -0.01561970
H        1.61647578       1.31802713      -0.04149121       0.00674795      -0.11494766       0.02432053
F       -1.39583554      -0.13476525      -0.04285633       0.07421510       0.01983373      -0.03025693
Cl       3.79253973       0.60461985       0.57626352      -0.03997880       0.03801921      -0.02703255
C        0.51574314       1.33440604      -0.00839160       0.02013201       0.00933533       0.04393262
H        0.15196814       1.80182839      -0.92794788      -0.07653295       0.09375618       0.02314842
C        0.41475790      -0.75547954      -1.33144938      -0.08780749       0.04508498      -0.00765980
N        0.60962526      -1.18880196      -2.38043938       0.04478171      -0.06090167       0.04114748
C        0.43104746      -0.92789417       1.10718918      -0.17068682      -0.08325513       0.08148106
N        0.55024973      -1.57489960       2.05305566       0.07434085       0.04071675      -0.09214251
C        0.05084257       2.07257058       1.24667592       0.02789106      -0.00521532      -0.06088587
H       -1.03622800       2.06978883       1.36116012      -0.01638258      -0.04849557       0.00155478
H        0.50897491       1.63002799       2.13475566      -0.03401567       0.04107489       0.00873723
H        0.38018988       3.11221804       1.19393117       0.04295289       0.02046498       0.00728010
