16
Properties=species:S:1:pos:R:3:forces:R:3 Coordinates=T from=T ORCA-job=T run=T Energy:=T 194.9640120=T energy=-34793.24566041262 pbc="F F F"
C        1.31520267       0.02024514      -0.00635073      -0.47798064       0.03741571       0.05691408
H        1.58797641       2.12335508      -0.36686623       0.28252214      -0.05417901      -0.05941457
Cl      -3.24975919       0.89837714      -0.11769035       0.03350383       0.05019459       0.03657850
Cl       3.11060904       0.06895663       0.45920780       0.09937873       0.03061801       0.04636204
C        0.74492994       1.50597648      -0.06437705      -0.19056608      -0.02953509      -0.07345123
C        1.21691054      -0.69564157      -1.28645592       0.26869979       0.61263788       0.68125607
N        1.26291305      -1.34760152      -2.22721246      -0.03407176      -0.43128741      -0.72883211
C        0.65646296      -0.79540005       1.02018733      -0.04849713      -0.23138556       0.18846887
N        0.16945024      -1.45124523       1.83543240       0.13129550       0.15262565      -0.16190967
C        0.25577278       1.98226434       1.30336445      -0.02740537       0.12390635       0.07481428
H       -0.65372965       1.46057923       1.60551295       0.01778426      -0.04562973       0.00456964
H        1.01932413       1.91285117       2.07887343       0.10393228      -0.15598245       0.15378247
H       -0.00161834       3.03735362       1.21074999      -0.07553185       0.11666956      -0.03207370
N       -0.23236491       1.58540451      -1.12236829       0.18419030      -0.75185209      -0.08290219
H       -0.33858998       2.53600882      -1.41103930      -0.07312087       0.59420323      -0.24326289
H       -1.16447769       1.25453901      -0.84389134      -0.19921189      -0.02014115       0.14368158
