16
Properties=species:S:1:pos:R:3:forces:R:3 Coordinates=T from=T ORCA-job=T run=T Energy:=T 196.3384169=T energy=-24987.467165622555 pbc="F F F"
C        0.18776090      -0.14970828      -0.13233383      -0.02703585      -0.01615568      -0.00449297
H        1.30409484       1.52706651      -0.89215474       0.00708256      -0.01141788      -0.02358378
Cl      -1.50931912      -0.53988282      -0.87950672       0.01164679       0.01352094       0.00208210
F        2.76685329       0.31976227       0.82841672       0.00866544       0.01028144       0.01296012
C        0.46992361       1.42028821      -0.18721452       0.01030544      -0.00089387       0.01489589
C        1.11890360      -0.86898382      -1.00721426      -0.01195415      -0.00092989       0.03320689
N        1.74444982      -1.50020511      -1.74236780       0.00417258       0.00381397      -0.04714478
C        0.20017464      -0.74156021       1.27264509       0.01426912      -0.00167399      -0.00000809
H        1.23037424      -0.61616196       1.61739914       0.01762739      -0.01066682       0.01265138
H       -0.48929589      -0.19782507       1.91666674      -0.01027174      -0.00962541      -0.02277195
H       -0.07192319      -1.79800217       1.22281578      -0.00235005       0.00728196       0.02368534
N        0.81747341       1.91745003       1.14337359      -0.01240790       0.00444683       0.04350389
H        0.98366580       2.91812361       1.06792307      -0.01804894       0.01554635      -0.02137755
H        1.74927989       1.43628046       1.28371592      -0.00429247      -0.01951185      -0.00745019
C       -0.64533989       2.21998980      -0.72053570       0.00227311       0.02308787       0.00515544
N       -1.43923158       2.95969309      -1.11359736       0.01226766      -0.01258506      -0.02132495
