14
Properties=species:S:1:pos:R:3:forces:R:3 Coordinates=T from=T ORCA-job=T run=T Energy:=T 36.8447591=T energy=-13677.036667314262 pbc="F F F"
C        1.05086620      -0.11917566      -0.17737069      -0.00458682       0.00019813      -0.00750159
H        1.08763661       1.81397664       0.72499167       0.01141578       0.00274509      -0.02549009
F       -1.61154752       0.65789224       1.08055233      -0.00470686       0.01229520       0.00550707
F        2.42692707      -0.18651698      -0.56762823       0.01077496       0.00776591       0.00022496
C        0.55251281       1.30969090      -0.08675199       0.00453480       0.00644540      -0.01382200
H       -0.59926719       1.15455328       0.36763431      -0.01701242       0.00075294       0.01168281
C        0.32447473      -0.87963256      -1.21836273      -0.00409751       0.04656576      -0.00565775
N       -0.22039232      -1.49763152      -2.02398912       0.01257081      -0.03790422      -0.01153567
C        0.90605883      -0.81072200       1.17287083      -0.00607493      -0.01721182       0.01717829
H        1.57999603      -0.32615380       1.88480682       0.02609950       0.00168690      -0.00639026
H       -0.12875943      -0.65213176       1.49161343      -0.02847310      -0.03725130       0.00753788
H        1.16770869      -1.86796705       1.09758436      -0.01692139      -0.02407333       0.03103985
C        0.64585621       2.08297718      -1.29632290      -0.02753280       0.02413502       0.00094704
N        0.67300006       2.73903027      -2.25097602       0.02026986      -0.00254070      -0.00427436
