13
Properties=species:S:1:pos:R:3:forces:R:3 Coordinates=T from=T ORCA-job=T run=T Energy:=T 112.6794952=T energy=-30778.91544495373 pbc="F F F"
C        1.25446408      -0.06638561      -0.07373340       0.07298706       0.00959727       0.09900855
H        0.80257319       1.89437861       0.62801537      -0.04035604       0.06811378      -0.10169088
Cl      -2.26917371       1.07907868       1.80871769      -0.00407349      -0.03648564      -0.01056153
Cl       3.08197790       0.29257583       0.25445758       0.04580819      -0.03170055       0.03256995
C        0.55069998       1.27407537      -0.23295931       0.00285816      -0.05247084      -0.02963085
H       -0.53320009       1.13758852      -0.18720537      -0.05924214      -0.05037362       0.00642937
H        0.84500751       1.75975335      -1.16391669       0.04462829       0.11358240       0.02599942
C        1.27163634      -0.85386437      -1.30587685      -0.07125323       0.01797807      -0.11993751
N        1.25813626      -1.47794509      -2.27612543      -0.00497700      -0.01013188      -0.00106424
C        0.71185839      -0.89198444       1.08851960       0.00939428       0.02003951       0.03407961
H        1.36948294      -1.73851546       1.29235060      -0.07615292      -0.06304468       0.02862007
H        0.59950940      -0.26456654       1.97173165       0.05156123       0.00223743       0.01417997
H       -0.29573602      -1.23537898       0.83933532       0.02891940       0.01082086       0.02293413
