18
Properties=species:S:1:pos:R:3:forces:R:3 Coordinates=T from=T ORCA-job=T run=T Energy:=T 64.9227911=T energy=-81069.42905143932 pbc="F F F"
C        1.22441131      -0.01332525       0.15946816       0.00337577       0.02806552       0.01744018
H        1.82684497       1.77424149      -0.84007941      -0.01390027      -0.01724169      -0.00617055
Br      -3.21402270      -0.64086536      -0.70374975      -0.04000153       0.00346074       0.00667840
F        2.46936391      -0.12593652       0.86158839      -0.01558791      -0.01743322      -0.00778671
C        1.04234903       1.50203729      -0.11350618      -0.00987928       0.03504108       0.03920884
C        1.46549960      -0.72014498      -1.11387925       0.02361851       0.00547261       0.04542933
N        1.73143211      -1.23574059      -2.10927782      -0.02035413      -0.04959807      -0.04263995
C        0.13438263      -0.64856575       1.00064257       0.04086716      -0.00409328       0.00349156
H       -0.03021207      -0.01562733       1.87451890       0.00904142      -0.04453309      -0.01083777
H       -0.80989124      -0.74609748       0.44548074       0.03740021       0.01944820       0.01860325
H        0.46224099      -1.63950041       1.32328249      -0.01355411      -0.01528766      -0.01151652
N        1.21818670       2.19755973       1.16421219      -0.02742945       0.05789349       0.07937378
H        1.00586687       3.18073188       1.04367297      -0.05010026       0.05878819      -0.01633570
H        2.18111000       2.12540138       1.47104622       0.02933137      -0.04183258      -0.00379249
C       -0.32548902       1.82778972      -0.70624343       0.00713144      -0.00559896      -0.03431119
H       -0.56164361       1.19451876      -1.56080686      -0.02507333       0.01040045      -0.07473986
H       -1.13322307       1.67082603       0.01018538       0.05044081      -0.01731420      -0.00152318
H       -0.34650745       2.87224495      -1.03718215       0.01147389       0.01015875      -0.00506314
