15
Properties=species:S:1:pos:R:3:forces:R:3 Coordinates=T from=T ORCA-job=T run=T Energy:=T 128.5701442=T energy=-79998.68433769816 pbc="F F F"
C        1.01947005       0.00073750       0.01275509      -0.01154837       0.00277578      -0.01631575
H        1.51316262       2.07870997       0.38236483       0.01268769      -0.02235091      -0.02803130
F       -1.48313940       0.10963209      -0.21390296      -0.00608679       0.00097128      -0.01458364
Br       3.18473075      -0.07039015      -0.12606653      -0.01994640      -0.00949731       0.02272164
C        0.64351024       1.49730680       0.06347598      -0.00370619      -0.00741302      -0.01336994
H       -0.13722099       1.55329467       0.82780080       0.02789544       0.00517864       0.04012385
C        0.63433071      -0.73697056      -1.18589310      -0.00269899       0.01122941      -0.00271946
N        0.49536806      -1.41195884      -2.11399697       0.02635925       0.02615744       0.03214002
C        0.69055106      -0.74961285       1.29413001       0.00531737       0.00092546       0.00271355
H        1.09122438      -1.76321164       1.28749692       0.01446825      -0.02435170      -0.02584578
H        1.09307885      -0.21498527       2.15725853       0.00778898       0.01902003       0.02860958
H       -0.40235480      -0.76210146       1.31396342      -0.01672125       0.01020582      -0.02248452
N        0.15896839       1.96245917      -1.23131017      -0.00429968       0.00180807      -0.03386845
H       -0.01973643       2.96181035      -1.17157428      -0.01062426      -0.00343390       0.01022837
H       -0.74668841       1.47925785      -1.29713934      -0.01681461      -0.01052993       0.01950894
