18
Properties=species:S:1:pos:R:3:forces:R:3 Coordinates=T from=T ORCA-job=T run=T Energy:=T 98.7810425=T energy=-13742.37570553994 pbc="F F F"
C        0.40001754      -0.09648684      -0.48326098      -0.03709402      -0.01842548       0.09828848
H        0.84050041       1.68759328      -1.54559654      -0.04703670       0.03139310      -0.05418545
F       -0.49316117      -0.46188610      -1.55313890       0.12314975       0.01247186       0.05802281
F        1.96619405       0.32418597       2.38051825      -0.08755237      -0.00693359      -0.01528068
C        0.54439711       1.46356359      -0.51301684      -0.06879108      -0.07002407       0.01397427
C        1.71005060      -0.69396435      -0.83602801      -0.23532495       0.09843619       0.05202021
N        2.72787967      -1.13252980      -1.15121893       0.07625982      -0.08875210      -0.10611232
C       -0.11933062      -0.66528827       0.82440219       0.03723973      -0.03089160      -0.02178948
H        0.66876786      -0.48476241       1.59971292      -0.09325851       0.02176389       0.01800682
H       -1.04238681      -0.14884498       1.11461527       0.09423171      -0.11268410      -0.07438535
H       -0.33134430      -1.73445627       0.70268710       0.03693012       0.06632392       0.00846278
N        1.55650753       1.97881183       0.39280939      -0.08996594       0.08458135      -0.01737971
H        2.46929068       1.89816924      -0.04488856      -0.00433566      -0.07852102       0.02768013
H        1.63295391       1.39412409       1.28052521       0.11766052       0.08704612       0.01215012
C       -0.81733342       2.13650455      -0.26018263       0.08750460      -0.00120664      -0.01352063
H       -1.61947543       1.69882769      -0.86506362       0.06159565      -0.01427701       0.03691146
H       -1.09208006       2.07593697       0.79671112       0.02889852       0.00678959      -0.03787116
H       -0.72616319       3.19569452      -0.51426958      -0.00002300       0.01714342       0.03498090
