16
Properties=species:S:1:pos:R:3:forces:R:3 Coordinates=T from=T ORCA-job=T run=T Energy:=T 195.2313715=T energy=-24988.92507657938 pbc="F F F"
C        0.01769986      -0.16103250      -0.00671387       0.00187206      -0.01781341      -0.04507555
H        1.54150271       1.34637500       0.05848571       0.09240634      -0.08457423       0.02541088
F       -1.40799416      -0.21836615      -0.00742027       0.11383312      -0.00171952       0.02181405
Cl       3.71562480       1.11045883       0.64423319      -0.04322887      -0.00508330      -0.01627938
C        0.43379696       1.32204682       0.00361189       0.02406968       0.05972814      -0.13901901
C        0.40995320      -0.80309462      -1.28098355      -0.09969712       0.09125565       0.17652559
N        0.61841072      -1.38679848      -2.25104455       0.10342047      -0.05211982      -0.05230577
C        0.54627620      -0.90164930       1.21356983       0.03763706       0.02327586       0.12981787
H        0.53238825      -1.98502596       1.06631560      -0.06426009       0.09473351       0.04422575
H        1.57143897      -0.56586594       1.42267129      -0.07510862      -0.14629087      -0.08781092
H       -0.09416726      -0.63340995       2.06066706       0.10701645      -0.09369164      -0.04526238
C       -0.06289959       1.97403252       1.22521339      -0.22625939       0.05851466       0.31687768
N       -0.48624288       2.50426008       2.16103400       0.06521100      -0.02315518      -0.19097072
N        0.01456297       1.97876093      -1.21673277      -0.08848228      -0.05727109      -0.30523895
H        0.60014843       2.77162036      -1.43626043      -0.04559451       0.08766955       0.06333811
H       -0.96630565       2.23181195      -1.23128226       0.09805016       0.06859759       0.10179995
