16
Properties=species:S:1:pos:R:3:forces:R:3 Coordinates=T from=T ORCA-job=T run=T Energy:=T 89.3702246=T energy=-31848.179629280585 pbc="F F F"
C       -0.00866464      -0.11886416      -0.02175221       0.01077913      -0.02811222      -0.00089293
H        1.55585071       1.29680464      -0.18796008      -0.01819589      -0.01805817      -0.03560364
Cl      -1.90565351      -0.15803782       0.11951226      -0.01003027       0.00436476      -0.00316515
Cl       3.72992049       0.71738405       1.11599095       0.02515564       0.00044997       0.02089095
C        0.46626009       1.34119597      -0.04492888      -0.00527463      -0.02115393      -0.01616160
H        0.01630395       1.83443633      -0.91185372      -0.00428148       0.00292287       0.00789562
C        0.24958490      -0.76273828      -1.31273117      -0.00619101       0.03063625       0.00198352
N        0.45508190      -1.26709982      -2.32954635       0.01006987       0.00180245       0.01375268
C        0.56058915      -0.93964918       1.12902920      -0.00223081      -0.00009234       0.01240423
H        1.65540354      -0.85146256       1.11347807      -0.02571199       0.02789012      -0.00718897
H        0.20551832      -0.52755434       2.07418408       0.02083995      -0.03936691       0.01209046
H        0.25419229      -1.98521791       1.05553232       0.00623890       0.02030323       0.00819445
C        0.20603671       2.12941601       1.23897745       0.00229535       0.00780095      -0.00023440
H       -0.82299880       2.02713144       1.59487334      -0.01923246       0.01314059      -0.01497729
H        0.89974503       1.82374253       2.02336461       0.00786690      -0.02453655      -0.00770414
H        0.39157269       3.18901085       1.04714715       0.01366680       0.03052061       0.01404155
