16
Properties=species:S:1:pos:R:3:forces:R:3 Coordinates=T from=T ORCA-job=T run=T Energy:=T 56.0553182=T energy=-79562.31676774709 pbc="F F F"
C        1.15261366      -0.02400969       0.11449676       0.01261275       0.02233443       0.00677789
H        0.93922922       1.89229635      -0.85201735       0.00244922      -0.01870335       0.00619025
F       -2.00015895       0.18819325       0.46849914       0.00564940      -0.01597516       0.00858317
Br       3.18434359       0.30666046       0.74794781      -0.00486903       0.00665090       0.00497859
C        0.44616893       1.30816345      -0.06978324      -0.00107681       0.01459573       0.01227676
H       -0.58162297       0.97758752      -0.36209263       0.00405488       0.01343120       0.00640896
C        1.37158902      -0.68208718      -1.16806051      -0.01695806      -0.01569721       0.01634593
N        1.50792048      -1.20705827      -2.18777361       0.00091876       0.00489675       0.00650247
C        0.46715032      -0.92398588       1.11789954       0.00577225       0.01115493      -0.02399348
H        0.83242824      -1.95197686       1.06872999      -0.02124685       0.00832344      -0.00392222
H        0.61487632      -0.53678491       2.12826778      -0.01822260      -0.01156692      -0.02826696
H       -0.62817607      -0.80407916       0.87713071       0.00881349      -0.02024946       0.02400448
C        0.21312707       2.10696438       1.21519843       0.01455227       0.01496328      -0.00880020
H       -0.63578603       1.65250695       1.72931098       0.02046625      -0.00351683      -0.03993982
H        1.09475431       2.15329881       1.86328732      -0.00153360       0.00223423       0.00379611
H       -0.06701794       3.13385110       0.95798190      -0.01308374       0.00411843       0.00731379
