15
Properties=species:S:1:pos:R:3:forces:R:3 Coordinates=T from=T ORCA-job=T run=T Energy:=T 116.9517299=T energy=-84058.08367304718 pbc="F F F"
C        0.20887098      -0.03445772       0.05763498       0.03144312       0.06354251       0.00781680
H        2.40371726       1.00868895       0.15713184      -0.08367795       0.03400831      -0.03952941
Br      -2.42066013      -0.56583204      -0.02799120      -0.00214424      -0.00730017      -0.00143455
F        3.30413030       0.79682957       0.32453954       0.06201406      -0.03052387       0.02312575
C        0.38446818       1.33913132       0.03219897      -0.09174803       0.00818369      -0.00923124
H        0.30381309       1.89502210      -0.89165335       0.01550353      -0.07379327       0.02138140
C        0.40194606      -0.66082744      -1.22562636       0.07296111      -0.06354768       0.06923847
N        0.69602857      -1.19383184      -2.20758543      -0.02685465       0.02239053      -0.11322919
C        0.50406671      -0.94386072       1.23003746       0.02732184       0.01316501       0.05492685
H        1.59678433      -1.03037808       1.30374131      -0.03548072      -0.01422577       0.02581959
H        0.13014680      -0.52310725       2.15606334      -0.06752932       0.03409077      -0.01406697
H        0.06971290      -1.92662279       1.06300738       0.02932594       0.00228453      -0.00454090
N        0.21251327       2.21374087       1.15036367      -0.03926414       0.04755122      -0.02472426
O        0.18078038       3.42231400       0.87828123       0.02321757       0.02807069       0.05761924
O        0.10866159       1.77559464       2.29971882       0.07192229      -0.07110918      -0.03922480
