17
Properties=species:S:1:pos:R:3:forces:R:3 Coordinates=T from=T ORCA-job=T run=T Energy:=T 142.4760286=T energy=-34357.60112783056 pbc="F F F"
C       -0.00333213      -0.16629200      -0.01776733      -0.04286094       0.03230458      -0.04013354
H        1.57553840       1.25012648      -0.11212797       0.07225857      -0.01607810       0.01487200
Cl      -1.87778964      -0.24037432       0.10142836      -0.03594691       0.00562455       0.01391971
Cl       3.66343026       0.87211075       0.80624045      -0.00582387      -0.00736141       0.03515088
C        0.46774516       1.31165525      -0.05413707       0.04861830      -0.00025321      -0.00502855
C        0.31782444      -0.86356677      -1.26683638       0.01000755       0.01150716       0.02913028
N        0.58311995      -1.44841618      -2.22416946      -0.01587582       0.01528613       0.00004305
C        0.57323774      -0.93201124       1.17370644      -0.02369155       0.06290805      -0.08288221
H        1.66641071      -0.87572370       1.12571148      -0.00083139       0.00562161       0.03632933
H        0.23963540      -0.47468744       2.10276970       0.00001056       0.00743301       0.05108977
H        0.22796423      -1.96439652       1.15460894       0.05340637      -0.08418353      -0.03464414
C        0.15221395       2.10547877       1.22409982       0.00369665      -0.01131478       0.03126005
H       -0.91679537       2.10886721       1.44309433      -0.03777183       0.08335383      -0.01212569
H        0.69756570       1.69152372       2.06925656       0.08692156      -0.03218723       0.00020204
H        0.50311369       3.13011064       1.09370739      -0.05701053       0.01169479       0.01533637
C       -0.01999505       2.04005034      -1.22452546      -0.07465544      -0.03798890      -0.09266383
N       -0.39646138       2.66695680      -2.11781306       0.02511544      -0.04702660       0.04105564
