14
Properties=species:S:1:pos:R:3:forces:R:3 Coordinates=T from=T ORCA-job=T run=T Energy:=T 80.8149606=T energy=-80436.63986404035 pbc="F F F"
C        0.49677368      -0.08566177      -0.13797488      -0.25117347       0.05846042       0.11206876
H        0.46957283       1.79807161      -1.13433267       0.06993712       0.17037688       0.09160297
Br      -2.46448050      -0.23379910      -1.31679817      -0.15539242      -0.00412091       0.10292089
F        2.46468154       0.11722679       2.76233044      -0.30970421       0.09215424      -0.05953915
C        0.26902650       1.42703871      -0.12567501       0.01547886      -0.03032712       0.01892396
H       -0.80273757       1.56077190       0.02925041       0.00037221       0.00082826      -0.10120838
C        0.50086206      -0.76073255      -1.41278305       0.06559013       0.02571012      -0.05814717
N        0.83590881      -1.27715528      -2.39225441       0.12946199      -0.15343661      -0.18952694
N        0.79656636      -0.70958123       0.94048494       0.05951630       0.02066233       0.12975934
H        1.71350359      -0.10856673       2.18763498       0.24761492      -0.13839143       0.02809503
H        0.88802819      -1.71425546       0.79857740       0.07006278       0.03061516      -0.01744412
N        0.99238855       2.19229460       0.88276313      -0.06456023       0.02029671      -0.02415550
H        1.98883353       2.02177904       0.84389145       0.16815965      -0.10495711      -0.07885541
H        0.71234613       1.89370266       1.80946119      -0.06357729       0.01138510       0.04560249
