16
Properties=species:S:1:pos:R:3:forces:R:3 Coordinates=T from=T ORCA-job=T run=T Energy:=T 90.6097998=T energy=-22285.613061293847 pbc="F F F"
C        0.22724179      -0.11278625       0.08754056       0.01494783       0.03875589       0.01033325
H        1.61775164       1.46036167       0.18568624       0.02216324      -0.03410165      -0.02885727
Cl      -1.58035075      -0.39666267      -0.04816797       0.02766886      -0.01498047       0.01060308
H        2.11645501      -0.59956914      -0.79866007       0.04074924      -0.01599806       0.00088542
C        0.52031606       1.40880538       0.10070609      -0.00661157       0.02901805       0.02473157
C        1.00902852      -0.77198075      -1.14954510      -0.00165891      -0.03259121       0.06199817
N        0.61909733      -1.31856114      -2.16476847       0.01180638      -0.01794511      -0.03482164
N        0.65469355      -0.67352529       1.37521982      -0.00931215       0.01835500      -0.06412818
H        1.67805419      -0.70588630       1.31623426      -0.02090891      -0.01585223       0.01059413
H        0.36434520      -1.65158647       1.37815467      -0.00177083       0.04485878      -0.02142703
C       -0.01264384       2.11033733       1.27054996      -0.01615073       0.00459468      -0.05184621
N       -0.43328164       2.74214431       2.14112154      -0.01498116       0.00176509       0.06629192
C        0.11548961       2.12471244      -1.20162830      -0.00893701      -0.01032226       0.01025685
H        0.64000637       1.66002328      -2.03682519      -0.03829828      -0.00117453      -0.01071962
H       -0.95585722       2.02077218      -1.37684818      -0.00513037       0.03690662       0.00376949
H        0.36602314       3.18907366      -1.15617317       0.00889306      -0.03225163       0.00934989
