15
Properties=species:S:1:pos:R:3:forces:R:3 Coordinates=T from=T ORCA-job=T run=T Energy:=T 46.3149200=T energy=-22479.96998513426 pbc="F F F"
C        0.01483516      -0.15353368      -0.02874895       0.02330084      -0.02910804      -0.01605254
H        1.56840839       1.30586727      -0.17266938       0.01573971      -0.00991429      -0.00411612
F       -1.40768088      -0.15284802       0.23013097       0.01802942      -0.02340579      -0.00334475
Cl       3.64034453       0.26386478       1.46809862       0.00217426       0.00238959       0.01356130
C        0.48144553       1.30783329      -0.05244830       0.00134075      -0.01813261      -0.03143205
H        0.04003992       1.78286179      -0.93304999      -0.03875955       0.05725432       0.00658729
C        0.08230705      -0.74129100      -1.39749827      -0.00035526       0.01082448      -0.05819369
N        0.15990127      -1.19272636      -2.45708120      -0.00059178      -0.02204663       0.04159904
N        0.67687150      -0.91445930       0.94688551      -0.01062331      -0.00988831       0.03272434
H        1.61495605      -0.55903515       1.19781349      -0.01238502      -0.00103144      -0.01054058
H        0.71577037      -1.90474709       0.74442900      -0.02423324       0.03694370       0.00361845
C        0.10384233       2.06944952       1.21794080      -0.00616696       0.00131919       0.00295429
H       -0.97861603       2.08998048       1.35890315      -0.02941639      -0.02343109       0.01468506
H        0.56522236       1.61656519       2.09536981       0.02699562       0.01069256       0.00511821
H        0.46072611       3.10041645       1.14680665       0.02702581       0.01810659       0.01064016
