16
Properties=species:S:1:pos:R:3:forces:R:3 Coordinates=T from=T ORCA-job=T run=T Energy:=T 203.3409015=T energy=-15183.074484109802 pbc="F F F"
C        0.01661667      -0.16779045       0.13318174       0.02244519      -0.00242061      -0.02676946
H        1.60278662       1.23788094       0.18412084       0.00083915      -0.02970542      -0.01794499
F       -1.37334950      -0.17515854       0.52628311       0.03677451       0.00534245      -0.00237850
F        2.99973728       0.33354943       0.61293643      -0.02532455      -0.00046727      -0.00397304
C        0.49509314       1.31173913       0.02245731       0.00632564       0.01382270      -0.00560451
C       -0.05780647      -0.83420854      -1.20487159      -0.01963184      -0.00614968      -0.00208995
N       -0.09385307      -1.40839951      -2.20609450       0.03316628      -0.01096578       0.00032259
N        0.81154420      -0.84306980       1.05871902      -0.06871185      -0.01947184       0.03435355
H        1.83295937      -0.47465899       0.99094173       0.03548951       0.00620217       0.01110382
H        0.73585710      -1.84935350       0.97321211       0.02026446      -0.00231134      -0.01638812
C       -0.06747390       2.08731699       1.12354629      -0.00611916      -0.00068853      -0.02190749
N       -0.48649958       2.76555899       1.95888386      -0.00033544       0.01588741       0.00112130
C        0.18732529       1.97814430      -1.32912120      -0.00090247       0.00344032       0.01055030
H        0.78588360       1.50979007      -2.11272801      -0.01124046       0.01261079      -0.00770541
H       -0.86838656       1.89369754      -1.60312226      -0.01342504       0.01082192       0.02638876
H        0.44714715       3.03857668      -1.29467068       0.01111147      -0.00264285       0.00848038
