15
Properties=species:S:1:pos:R:3:forces:R:3 Coordinates=T from=T ORCA-job=T run=T Energy:=T 124.9872581=T energy=-12917.399583527183 pbc="F F F"
C        0.31535530       0.04194711       0.14806280      -0.00473376       0.02366921      -0.01199640
H        1.62307240       1.71846213       0.10767553      -0.03334912      -0.02278654       0.02629815
F       -1.09187968      -0.18129254       0.16263254       0.02389206      -0.01602108       0.00214489
H        0.80595715      -1.76902177      -0.95369428      -0.00263964       0.02013840      -0.01754691
C        0.53590135       1.56917794       0.13135163      -0.01325716       0.03939543      -0.00921959
C        0.92732509      -0.63165819      -1.12260509      -0.02219566       0.01140751      -0.00313730
N        1.47318625      -0.07992537      -2.08778499      -0.00787701      -0.02459805       0.02471345
N        0.78442115      -0.54707821       1.39921020      -0.00742116      -0.01542402      -0.01800319
H        1.80011077      -0.61839407       1.33753767      -0.02557242       0.04511775      -0.00889826
H        0.45579428      -1.51189085       1.38472918       0.01992639      -0.05979111       0.00994846
C        0.01605906       2.21188386       1.35293413       0.03202326      -0.02874431      -0.00167710
N       -0.40253537       2.72945505       2.29593494       0.00224103       0.03779655      -0.03717186
N        0.00532214       2.23043325      -1.06724934      -0.03708902      -0.03074052      -0.03510503
H       -0.97387640       1.95885555      -1.15249095       0.06240035      -0.01426538       0.02485838
H        0.50365356       1.72081103      -1.81759099       0.00639788       0.03286084       0.05409368
