14
Properties=species:S:1:pos:R:3:forces:R:3 Coordinates=T from=T ORCA-job=T run=T Energy:=T 77.4139861=T energy=-26974.04481574978 pbc="F F F"
C        0.41696956      -0.22906664      -0.10366304      -0.02783829      -0.04006441       0.04664488
H        1.75398625       1.40336736       0.05650202       0.06570961       0.05832159       0.05115792
Cl      -2.29506358       0.14755246      -0.00680371       0.01979539       0.01603736       0.00587765
F        3.12100979      -0.03440180       1.80078039      -0.01832849       0.04366366       0.00859155
C        0.67926268       1.25882844      -0.07274506       0.02665648      -0.01270588      -0.04263274
H        0.32913979       1.75583103      -0.96665769      -0.04796604       0.01804633      -0.07011974
C        0.00604687      -0.76376608      -1.38449446      -0.00989029       0.03982181      -0.05061221
N       -0.06417051      -1.20298987      -2.45298452       0.01049296      -0.06025129       0.02560591
N        0.91385671      -0.96972257       0.82182410      -0.05636517      -0.01682612      -0.02060037
H        2.24578739      -0.40372603       1.62523168      -0.00893869       0.00421495       0.00475100
H        0.73251676      -1.95800600       0.66642877       0.01969929      -0.04492939      -0.03141327
N        0.05942417       2.03081700       1.08040622      -0.03080137      -0.05729545       0.00050239
O       -0.29559190       3.16746164       0.80330611       0.02829191       0.00274012       0.05481150
O        0.04227444       1.52482253       2.18121617       0.04403190       0.03888828       0.02751581
