14
Properties=species:S:1:pos:R:3:forces:R:3 Coordinates=T from=T ORCA-job=T run=T Energy:=T 100.5226718=T energy=-26974.145826111715 pbc="F F F"
C        0.46790404      -0.29671366      -0.27549534       0.09197394      -0.02789925      -0.00537607
H        1.83479006       1.35366115      -0.36517001      -0.02825596      -0.00555696      -0.01502028
Cl      -2.08868012       0.26817716       0.38210277       0.00017354      -0.01343226       0.01313687
F        2.65265949       0.60941423       2.03383761       0.00866868      -0.03528420       0.00024164
C        0.75596407       1.19139164      -0.27770485      -0.03367926      -0.02902078       0.03544412
H        0.41943052       1.59438215       0.67070126       0.02369373       0.12126192      -0.06321695
C       -0.05124689      -1.01855218      -1.41620334      -0.02293004       0.09697300       0.22235599
N       -0.29725498      -1.75052707      -2.27319027      -0.03054523      -0.14435690      -0.19403127
N        1.04813339      -0.93567580       0.68253242       0.04099814       0.00600775       0.02762349
H        2.04648492      -0.05138246       1.66688510      -0.02800786      -0.00380508      -0.02628555
H        0.87956725      -1.93783056       0.65735884      -0.00813684       0.02352877      -0.03974514
N        0.14021038       2.02920460      -1.36256587      -0.16245242       0.03261395       0.10799093
O        0.05716493       3.22337469      -1.11539298       0.03466508      -0.04183283      -0.03982120
O       -0.16741850       1.50326491      -2.41689187       0.12350602       0.03276679      -0.04576197
