15
Properties=species:S:1:pos:R:3:forces:R:3 Coordinates=T from=T ORCA-job=T run=T Energy:=T 120.1221679=T energy=-15619.51328644402 pbc="F F F"
C        1.20172640       0.08417888      -0.20314829      -0.02062011       0.00322202       0.00744798
H        1.57384036       2.01168995       0.49213438       0.03033466      -0.02535339       0.01460189
F       -0.99682758      -0.57683067       1.82455037      -0.00218371       0.01014509      -0.00097274
F        2.42939462       0.13995367      -0.92195826      -0.02071132       0.01858632       0.01844898
C        0.73039051       1.56050954      -0.04384291       0.00445739       0.01337539       0.01119197
C        0.30496117      -0.71343969      -1.09374650       0.01714428      -0.00401958      -0.00642459
N       -0.34218823      -1.39239603      -1.76454082      -0.01066060      -0.00606065      -0.01286755
N        1.42304105      -0.49049527       1.06932245       0.00275347      -0.01162604      -0.00609600
H        1.73557540      -1.44882669       0.93064537       0.01392142      -0.01038875      -0.00724429
H        0.45233690      -0.56145640       1.55267413       0.01089699       0.00775470       0.00286730
N       -0.52950827       1.73686594       0.66683744      -0.00041085       0.00318803       0.00607613
H       -0.34989752       2.29153469       1.49570481      -0.00775335       0.01404423      -0.01170171
H       -0.88664930       0.81931639       1.03658359      -0.00187050      -0.01551686       0.00082519
C        0.68968439       2.24359674      -1.36215137       0.01428284      -0.00435579      -0.00545714
N        0.66232146       2.84252812      -2.34778978      -0.00906369      -0.00947076      -0.01470544
