16
Properties=species:S:1:pos:R:3:forces:R:3 Coordinates=T from=T ORCA-job=T run=T Energy:=T 56.2340832=T energy=-80351.17864773852 pbc="F F F"
C        0.35810605      -0.01853932      -0.11274635      -0.02101701       0.01109539       0.00256607
H        1.61630856       1.55728097      -0.64882763      -0.00620222       0.00035149       0.01325024
Br      -1.48194583      -0.38726106       0.67084891       0.01876876      -0.00171678       0.00721173
H        2.90401746       0.75069697       1.21264404       0.00048269      -0.01274407       0.01066646
C        0.60049060       1.49683286      -0.23702721      -0.01448241       0.00749656      -0.02876061
H        1.06403067      -0.29544358       0.68221772       0.00925506      -0.00128746      -0.01734094
C        0.54834017      -0.88175603      -1.34544635       0.00107688       0.01166332       0.00160974
H       -0.13211788      -0.61728082      -2.15402325      -0.01665994       0.01011104       0.00726541
H        1.57368501      -0.74090129      -1.70255102       0.01039655       0.01259306       0.00920218
H        0.41832031      -1.93745868      -1.09511699       0.00440370       0.00951009       0.01527397
N        0.59279104       2.24493264       0.97251366       0.00772524      -0.02100591      -0.01875483
H        1.48183630       1.94729210       1.42341376       0.00033237      -0.02242639      -0.00053295
H       -0.18367155       1.96048660       1.56212985       0.00142022       0.00671690      -0.00097198
N       -0.30545195       2.12600788      -1.29795231       0.00785964       0.00723861      -0.01539016
O       -1.19141780       2.88693648      -0.94650571      -0.00450071       0.01231220       0.03669012
O       -0.08900536       1.80793542      -2.47105985       0.01813021      -0.03326541      -0.01420009
