16
Properties=species:S:1:pos:R:3:forces:R:3 Coordinates=T from=T ORCA-job=T run=T Energy:=T 46.9892663=T energy=-31280.94859734103 pbc="F F F"
C        0.89281895       0.06170043      -0.03495621       0.01524107      -0.03497141       0.00094672
H        1.65964073       1.96677228      -0.65956634       0.00130090      -0.00851620       0.00163843
Cl      -2.68213679      -0.49691640      -0.23395606       0.00029612       0.00872704      -0.01685458
Cl       2.46257154      -0.30638891       0.94018197      -0.02211016       0.00669529      -0.04361127
C        0.75379274       1.58411353      -0.15527508      -0.01258699      -0.00307599      -0.00096447
H        0.09115131      -0.32918098       0.59007877      -0.00335494       0.01630835       0.00106757
C        0.96400806      -0.67412711      -1.35467926       0.00564827      -0.00853284      -0.01265272
H        0.01586783      -0.52380233      -1.87327504       0.00610569      -0.01920628       0.01609158
H        1.78139919      -0.30253795      -1.98047309      -0.00344264       0.01047718       0.00290667
H        1.09923469      -1.74536215      -1.19044654       0.00120001       0.01431156       0.00524895
N        0.60099067       2.17315388       1.19100899       0.02338574       0.01875879       0.03402392
H        0.60693079       3.18540640       1.09272432      -0.01420169       0.01324010       0.02522834
H        1.41174565       1.93457578       1.75699247       0.01946143       0.01017120       0.02330027
N       -0.38272667       1.86536060      -1.01561548      -0.01761533      -0.00625121      -0.02944202
H       -0.63166643       2.84688355      -0.92899154       0.00068593       0.00350878      -0.03489257
H       -1.20114908       1.31837410      -0.71672727       0.00473464      -0.01214924       0.02058008
