15
Properties=species:S:1:pos:R:3:forces:R:3 Coordinates=T from=T ORCA-job=T run=T Energy:=T 65.7940604=T energy=-89805.75116046578 pbc="F F F"
C        0.15969547      -0.11314672      -0.14862866      -0.00625447      -0.02838761       0.00380447
H        1.46684619       1.47934219      -0.52039457       0.01179739       0.00610501       0.02569312
Cl      -1.61126510      -0.48180532       0.21777242       0.00913910      -0.00840455      -0.00972369
Br       3.48093390       0.52107254       1.25016269       0.00669506      -0.00016851       0.00701450
C        0.42693248       1.40206220      -0.16006813       0.00447174      -0.01780738      -0.01294478
H        0.71294894      -0.50755761       0.70092571      -0.00314659      -0.01584233       0.01604381
C        0.58111829      -0.82140142      -1.42345572      -0.00817310       0.00820414      -0.00932227
H        0.07080871      -0.41630042      -2.30131982      -0.00111595       0.01469503      -0.01181966
H        1.66228429      -0.70141336      -1.54142537      -0.01390776       0.01644197      -0.01119129
H        0.36465983      -1.89010399      -1.36358818      -0.00865691       0.02052037       0.02397716
N        0.29325412       1.95944251       1.19208554       0.01572642       0.00037071      -0.02924377
H        0.41206132       2.96776998       1.13250629       0.00631449       0.00178083       0.02263112
H        1.12465846       1.61693200       1.68641645      -0.00337705       0.02147490       0.00202197
C       -0.41836622       2.13428730      -1.11280838      -0.01240211       0.00023868      -0.00092886
N       -1.03586919       2.75025477      -1.86835731       0.00049157      -0.01890155      -0.00486994
