15
Properties=species:S:1:pos:R:3:forces:R:3 Coordinates=T from=T ORCA-job=T run=T Energy:=T 159.5702899=T energy=-89805.69515957034 pbc="F F F"
C        0.96923888       0.01140770      -0.05782910       0.00546556      -0.04516635      -0.01936826
H        1.69866763       1.96066766      -0.56766980      -0.01513949       0.00138734      -0.01675768
Br      -2.78539283      -0.29873670      -0.07804477       0.00689527      -0.03677552       0.00256546
Cl       2.59026449      -0.29254412       0.79999812      -0.02417282      -0.00630331       0.00464917
C        0.77464224       1.54086865      -0.14941541       0.00977397      -0.04281071      -0.02088993
H        0.21631543      -0.42569736       0.59559151      -0.00283489       0.01749034       0.00405801
C        0.96845614      -0.69108904      -1.40282125      -0.00146502       0.00664279      -0.00471802
H       -0.04714661      -0.66738922      -1.80168557       0.01318526       0.01493817      -0.00046692
H        1.64627329      -0.21395433      -2.11602488       0.00231665       0.02627768       0.02358678
H        1.26674807      -1.73546900      -1.28024918      -0.03028613       0.02844545       0.02575797
C        0.63678043       2.15238001       1.19865646       0.01433782       0.00929755      -0.02820001
N        0.52255004       2.72691358       2.19298182      -0.00331689       0.00942404       0.02400934
N       -0.32732279       1.85201282      -1.05282960       0.00063431       0.00665134      -0.02291067
H       -0.53583544       2.84418573      -1.01193334       0.00302351       0.02190283      -0.00006312
H       -1.18005900       1.34229538      -0.77568755       0.03474191      -0.01311604       0.03167114
