13
Properties=species:S:1:pos:R:3:forces:R:3 Coordinates=T from=T ORCA-job=T run=T Energy:=T 122.6121147=T energy=-88299.94344765804 pbc="F F F"
C        1.00129559      -0.03573581      -0.20931454      -0.01709848      -0.00015671       0.04334398
H        0.96111648       1.96163150       0.61695010       0.02682092       0.10363231      -0.13542628
Cl      -1.67657253      -0.07948756       2.04836684       0.02130149       0.00134213      -0.07547836
Br       2.99285676       0.01225211       0.16090706       0.07591915      -0.09836577      -0.07847918
C        0.44902123       1.38740418      -0.15765008      -0.09010220       0.10905581       0.17982984
H        0.58279151      -0.55973056       0.64938464       0.06060666      -0.00657636       0.03083790
H       -0.58173319       1.30211992       0.22074960      -0.10543923      -0.12598365      -0.02813197
C        0.74343437      -0.75861171      -1.51368361      -0.06709885      -0.04628250       0.00146200
H       -0.33135999      -0.72156980      -1.71629581      -0.06362132      -0.01887337       0.02224974
H        1.25501363      -0.27130177      -2.34787381       0.00628379      -0.12150191       0.00841224
H        1.03127160      -1.80984096      -1.45790895       0.09971594       0.03884719      -0.00669559
C        0.44368081       2.08352612      -1.43760045      -0.10218149       0.19341686      -0.19110669
N        0.35082403       2.59086168      -2.47275634       0.15376440      -0.02371424       0.22153461
