12
Properties=species:S:1:pos:R:3:forces:R:3 Coordinates=T from=T ORCA-job=T run=T Energy:=T 1.2413616=T energy=-85790.59544491016 pbc="F F F"
C        1.09003859      -0.01156381      -0.04130350      -0.03273491      -0.00450569       0.00432263
H        1.34715233       1.98159541      -0.86274695      -0.03090708      -0.00905818       0.01321587
Br      -2.57378593      -0.34716261       0.26322996      -0.00198034       0.00909107      -0.01436506
Cl       2.88063079      -0.24358553       0.49645821       0.02985020       0.00326908      -0.00098900
C        0.77327238       1.46757269      -0.08349264       0.00278896      -0.01697458       0.01236195
H        0.51473330      -0.49172131       0.74655663       0.01625768      -0.01027251       0.02102615
H        0.97868353       1.94079242       0.87900176       0.00932602       0.02953011      -0.00407663
H       -0.30031390       1.55410653      -0.28021185       0.00898848       0.02443912      -0.01231329
C        0.86975204      -0.73213514      -1.35362893       0.00247231      -0.00311023       0.02063571
H       -0.20240543      -0.67534839      -1.56800000       0.01028601      -0.00207304      -0.02691374
H        1.44624808      -0.27629243      -2.16644091      -0.03038336      -0.00967441       0.01342835
H        1.14212518      -1.78658442      -1.27354932       0.01152897      -0.01111048      -0.02541138
