16
Properties=species:S:1:pos:R:3:forces:R:3 Coordinates=T from=T ORCA-job=T run=T Energy:=T 55.8444345=T energy=-22830.465648005884 pbc="F F F"
C        0.39084702      -0.03890082      -0.17843738      -0.02726588       0.00951149       0.00867182
H        1.55584489       1.67291121      -0.47201043      -0.01410717       0.00007927       0.01756700
Cl      -1.31991190      -0.55805365       0.34554497       0.01720630      -0.00670212       0.00511422
H        2.80687203       1.02745542       1.36691061      -0.00739166       0.00367474       0.00645439
C        0.50889065       1.49591109      -0.18610263      -0.01559607       0.00334272      -0.02357150
H        1.04813984      -0.31005539       0.65568953       0.00482649      -0.00437576      -0.01079420
C        0.77611922      -0.79844028      -1.43391469      -0.00246268       0.02424822       0.00484697
H        0.14871457      -0.54369457      -2.28744687      -0.02129565       0.01029889       0.00828587
H        1.81071813      -0.54278605      -1.68077938       0.01247816       0.00356953       0.00340667
H        0.72289269      -1.87586540      -1.25447277       0.00051448       0.02330717       0.01069105
N        0.30094601       2.15266649       1.05735704       0.01502470      -0.03554289      -0.02522152
H        1.19273863       1.96508401       1.55909307      -0.00631997      -0.01922373      -0.00048326
H       -0.46423519       1.72524925       1.57015310       0.00810046       0.01392126      -0.02250704
N       -0.34517308       2.10480428      -1.30089602       0.01207789       0.02118306      -0.02126665
O        0.02926942       1.89794629      -2.45953696       0.01075227      -0.02489898      -0.00804527
O       -1.34421993       2.74049526      -1.00677382       0.00088806       0.00041378       0.02618109
