14
Properties=species:S:1:pos:R:3:forces:R:3 Coordinates=T from=T ORCA-job=T run=T Energy:=T 13.5025328=T energy=-21326.73059406513 pbc="F F F"
C        0.27252895       0.02791921      -0.05456210      -0.01880045      -0.01950376      -0.00677891
H        3.15096037       1.23498973      -0.07787995      -0.00846338       0.00240841       0.01231412
Cl      -2.40656557      -1.44976391      -0.05423717      -0.00598151      -0.02561477       0.04365726
H        3.89185714       1.28425992      -0.09241292       0.03010612       0.00232378      -0.00959489
C        0.12230921       1.35906711      -0.02798406      -0.00063191      -0.04506388      -0.00471287
H        0.33286337      -0.48736683       0.89822319      -0.01027529       0.02300296      -0.05658312
H       -0.03579563       2.00440998      -0.88077290       0.02084730      -0.02482702       0.00763302
C        0.49327507      -0.77622207      -1.29866150      -0.00031150      -0.00190368       0.03110918
H       -0.00673804      -0.34561755      -2.16982125       0.04729809       0.03336863       0.05361517
H        1.57104891      -0.84995568      -1.51279873      -0.00416741       0.03825179       0.00886711
H        0.09418845      -1.77716221      -1.15085160      -0.03561624       0.00393579      -0.05513823
N        0.02955249       2.08139804       1.21806247      -0.06896520      -0.00528476      -0.01242160
O       -0.26245775       3.28097945       1.13892882       0.03521474       0.02810507      -0.03970903
O        0.25416682       1.50458238       2.28078621       0.02734362      -0.00946745       0.02378027
