13
Properties=species:S:1:pos:R:3:forces:R:3 Coordinates=T from=T ORCA-job=T run=T Energy:=T 26.5058122=T energy=-78494.15997525449 pbc="F F F"
C        0.80442922       0.02378541       0.02287444      -0.02483044      -0.02073941       0.02104643
H        0.63307449       1.98266709      -0.78844720      -0.04427042      -0.02115800       0.00949038
F       -2.20840030       0.78064551      -0.75188803      -0.07211648      -0.03291807      -0.02806939
Br       3.69563507      -0.74056336       0.57606345      -0.00175092      -0.02582751       0.02675290
C        0.54719189       1.35591879       0.09670640       0.07277489       0.00708692       0.04461990
H        0.77383245      -0.57216665       0.92798170       0.02466905       0.07252224      -0.01105514
H       -1.38755302       0.86950908      -0.30116821       0.07453364      -0.00228298      -0.03676091
C        0.91882054      -0.71368219      -1.27524329      -0.01496719      -0.02548354      -0.00589872
H       -0.08038078      -0.86646099      -1.70782436      -0.01429528       0.03559629       0.01220142
H        1.52687087      -0.15772250      -1.99202811      -0.03078986      -0.02625457      -0.01313430
H        1.39323333      -1.67718153      -1.10791988       0.04112458      -0.00265480      -0.07548978
C        0.36609828       2.04056617       1.32853628       0.00637912       0.02542560       0.09222940
N        0.18943881       2.60914551       2.32267563      -0.01801468       0.02394531      -0.05234821
