17
Properties=species:S:1:pos:R:3:forces:R:3 Coordinates=T from=T ORCA-job=T run=T Energy:=T 58.9595018=T energy=-92423.64316118519 pbc="F F F"
C        0.86604380       0.00108662      -0.01102814      -0.01087430       0.04049329      -0.00200289
H        1.86343540       1.89173730      -0.35529570       0.00432632      -0.00682765       0.01602112
Br      -2.66099617      -0.77016919      -0.19716644      -0.01367592       0.01316883      -0.01450459
Cl       2.41931964      -0.55815448       0.83673312       0.02265308       0.01195883       0.02338973
C        0.84963745       1.53699875      -0.15065668      -0.01343372       0.02177284       0.00692093
H        0.03845371      -0.32836347       0.61845968       0.01873558      -0.04390546      -0.01332028
C        0.79928850      -0.72302316      -1.34664124       0.01037924       0.00401341       0.00104876
H       -0.19913161      -0.60289358      -1.76987684      -0.00558838      -0.00923671       0.01790439
H        1.56524794      -0.36425915      -2.04172125       0.01856651      -0.00847706      -0.01457977
H        0.95327587      -1.78911725      -1.18112828      -0.02029310      -0.01875267      -0.01058508
N        0.52554133       2.20044826       1.21111380      -0.01991605      -0.02116685       0.02392420
O       -0.42129569       2.96752841       1.26901863       0.01549926       0.00863532      -0.01124646
O        1.26435028       1.94083226       2.14797311       0.01286780       0.01756574      -0.01178402
C       -0.13421416       2.03519850      -1.20315912      -0.01660377      -0.01225028      -0.01405775
H        0.22772585       1.74330440      -2.19060795      -0.00909559       0.01005468      -0.02639480
H       -1.12262011       1.59682000      -1.04997585      -0.02561072      -0.00227673       0.01521378
H       -0.21452582       3.12239127      -1.17265166       0.03468228      -0.01909539       0.01637804
