15
Properties=species:S:1:pos:R:3:forces:R:3 Coordinates=T from=T ORCA-job=T run=T Energy:=T 17.1183708=T energy=-74350.06828721041 pbc="F F F"
C        0.40143651      -0.05666306      -0.08222497       0.04253263       0.01842724       0.00357429
H        1.68662435       1.53514457      -0.31681076      -0.02541457       0.00553723       0.01874454
Br      -1.53531053      -0.45388824       0.58889945       0.01652153       0.00785872      -0.01855780
H        3.26747862      -0.21977358       0.38061710      -0.00795592      -0.00229761       0.00664281
C        0.59944500       1.44748787      -0.18090717      -0.01260147       0.01329093      -0.00449172
H        1.04429977      -0.43716965       0.71305638       0.01878929      -0.01560855       0.03821284
H        0.38126768       1.89072871       0.79717900       0.01432625      -0.00527855       0.00333792
C        0.64515422      -0.85779519      -1.34173146      -0.00496958      -0.00573926      -0.01310388
H        0.03984985      -0.53045023      -2.19048372      -0.02835696       0.03545454      -0.01989076
H        1.71267007      -0.73920898      -1.55503803       0.01170435      -0.00417000      -0.01727852
H        0.45854281      -1.91964121      -1.16982476      -0.01540784      -0.03532086       0.01080371
C       -0.17275507       2.19756333      -1.26705206      -0.00412225      -0.00638956       0.01038547
H        0.05351654       1.82569311      -2.27163139       0.00718174       0.00038620       0.01893735
H       -1.25433249       2.12126763      -1.11695792      -0.00916243      -0.01346715      -0.02876003
H        0.09032553       3.26191491      -1.24932165      -0.00579261      -0.00849986      -0.00960070
