15
Properties=species:S:1:pos:R:3:forces:R:3 Coordinates=T from=T ORCA-job=T run=T Energy:=T 152.0916347=T energy=-12673.345206823044 pbc="F F F"
C        0.87019394      -0.00200467       0.00915774      -0.01792877       0.00853409       0.00086759
H        1.74156506       1.88114381      -0.50166606       0.00876278      -0.03444277       0.00075812
F       -1.85130056      -0.14008350      -0.68781641      -0.01082147       0.01146273       0.00908408
F        2.06028747      -0.26643696       0.74857396      -0.00744158      -0.00431147      -0.00627898
C        0.76837366       1.53162942      -0.11782087      -0.01207402       0.02002846      -0.01676670
H        0.02038761      -0.37025585       0.58104133      -0.00507779      -0.01121186      -0.00145003
C        0.89483759      -0.71447925      -1.32416587       0.00417725       0.00265368       0.00671539
H       -0.15258249      -0.72773913      -1.64283063       0.02185678      -0.00067711      -0.03876973
H        1.53392104      -0.21612239      -2.06100774       0.01166321      -0.00844809       0.02068565
H        1.24897242      -1.74074622      -1.17629769      -0.00331905       0.00330171       0.00725652
C        0.64717647       2.14075914       1.23333159      -0.00839221       0.01712998      -0.01693195
N        0.53387214       2.69677705       2.24036612       0.00140581      -0.01065172      -0.00494799
N       -0.30866270       1.89801722      -1.02928306      -0.01260427      -0.01163206       0.02048203
H       -0.64517545       2.83169760      -0.81558630      -0.00199977      -0.03103589       0.00802181
H       -1.09489363       1.17590673      -0.91509085       0.02591400       0.02610374       0.01937177
