15
Properties=species:S:1:pos:R:3:forces:R:3 Coordinates=T from=T ORCA-job=T run=T Energy:=T 90.8700847=T energy=-79999.16343815604 pbc="F F F"
C        0.86923490      -0.00234654      -0.04861031       0.01340364      -0.01862117      -0.01066519
H        1.71082309       1.92502907      -0.51262403      -0.00219498      -0.00610370      -0.01008360
F       -1.82087633      -0.12795503      -0.48673908       0.00407105      -0.01274467       0.01378003
Br       2.61680049      -0.42825784       0.94360970      -0.04439087       0.01085940      -0.01813474
C        0.75419747       1.53648378      -0.13465142       0.03086222      -0.04293071       0.01622155
H        0.07383693      -0.40419410       0.57179678       0.01646619       0.02376721       0.00418099
C        0.84382563      -0.69127500      -1.39638085      -0.00258522       0.01331457       0.00892895
H       -0.22221640      -0.68088763      -1.65164834       0.02969080       0.00696711      -0.04521181
H        1.44231392      -0.17019205      -2.14917407      -0.00013809      -0.02691673       0.01629164
H        1.18509816      -1.72690656      -1.31213279      -0.01808265       0.02965134       0.00856155
C        0.58576516       2.13771234       1.21408227       0.01606193      -0.01838977      -0.02008574
N        0.42215797       2.70410816       2.20731967      -0.01448726       0.02636391       0.03596206
N       -0.32838200       1.88996491      -1.04865093       0.01988529      -0.00047357      -0.03099825
H       -0.62764387       2.83997347      -0.85616887      -0.04306573       0.03959008      -0.00763659
H       -1.12221608       1.20224946      -0.86284853      -0.00541742      -0.01877702       0.02960109
