16
Properties=species:S:1:pos:R:3:forces:R:3 Coordinates=T from=T ORCA-job=T run=T Energy:=T 47.9192841=T energy=-92860.61589005515 pbc="F F F"
C        0.03224075      -0.12626120      -0.07814816      -0.08651388      -0.13964413      -0.01873679
H        1.56689418       1.29420993      -0.04607831      -0.08174357       0.17705888      -0.00507150
Cl      -1.84369539      -0.28172902      -0.02583904       0.10207046       0.08871337       0.02655435
Br       3.90528768       0.74342602      -0.22996564       0.01861275       0.01318978      -0.02871822
C        0.45226467       1.33196013      -0.07713550       0.00932433      -0.07995964      -0.04367806
H        0.35280947      -0.58233691       0.85329224      -0.06055492       0.01768530       0.04561069
C        0.55082505      -0.88432329      -1.28137477      -0.04034651      -0.01849945      -0.01610312
H        0.22321934      -0.39347548      -2.20011125       0.06374077      -0.07676422      -0.00210494
H        1.64826727      -0.88780738      -1.24555048      -0.08860821       0.08156527      -0.00271397
H        0.18155587      -1.91373968      -1.25935590       0.05242779       0.03677691      -0.03836329
N        0.04762842       1.96386996       1.29481542       0.05732185       0.08407548      -0.03116091
O       -0.53119483       3.04294060       1.25927985      -0.01732451       0.05888574       0.08365543
O        0.36513354       1.37571091       2.31322612      -0.01249539      -0.09730629       0.08360466
N       -0.02177455       2.09608903      -1.17279687       0.00253197      -0.01661798      -0.00714409
H        0.46192360       2.98642297      -1.22698750      -0.02058857      -0.12741076       0.00784691
H       -1.01769877       2.27768023      -1.08306907       0.10281538      -0.00128686      -0.03403336
