17
Properties=species:S:1:pos:R:3:forces:R:3 Coordinates=T from=T ORCA-job=T run=T Energy:=T 37.3053583=T energy=-88365.27420771003 pbc="F F F"
C        0.20649502      -0.09843447      -0.15597743       0.00281238       0.01819109      -0.01561300
H        1.54207630       1.42883240      -0.55341572      -0.02948826       0.00405664       0.03238420
Br      -1.76450325      -0.49996306       0.19393503       0.00438171       0.00502557       0.00550633
Cl       3.37706728       0.36685187       1.47242102      -0.00532602      -0.00139649       0.00353885
C        0.49246161       1.40603811      -0.21043886      -0.01702505      -0.00723015      -0.01516941
H        0.68735975      -0.50424123       0.73143878       0.01438735       0.01032560      -0.02182938
C        0.63078288      -0.87449895      -1.38968515      -0.00030603       0.01173434       0.01122902
H        0.09857295      -0.54667807      -2.28719683       0.00726776      -0.02172342      -0.00032192
H        1.70505858      -0.72401228      -1.53772961       0.00144145      -0.01097209       0.02061204
H        0.45489446      -1.94319136      -1.25403432      -0.00667782       0.00094461      -0.03641514
N        0.38084770       1.97286924       1.13740832       0.01835547      -0.01878171      -0.03994967
H        0.58402499       2.96813549       1.07629159       0.01237424       0.00347397       0.00612228
H        1.16262026       1.57502812       1.66731776      -0.01054287       0.01953022       0.02320543
C       -0.35933122       2.20073932      -1.20120423       0.00902499      -0.01231556       0.02120628
H       -0.26928369       1.81337602      -2.22139729      -0.01747651       0.01290914       0.03302056
H       -1.41250361       2.18460958      -0.91104900       0.01299396       0.00443362       0.00292104
H       -0.02637707       3.24529060      -1.21548105       0.00049689      -0.01491542      -0.02970553
