15
Properties=species:S:1:pos:R:3:forces:R:3 Coordinates=T from=T ORCA-job=T run=T Energy:=T 13.3021905=T energy=-77052.84423795673 pbc="F F F"
C        0.92186301       0.03131338      -0.11562225       0.04040690      -0.00765599       0.00752400
H        1.90989107       1.78092853      -0.91839947       0.00643135      -0.00840332       0.01083772
F       -1.72469991      -0.20267868      -0.08949960       0.00379211      -0.01063007      -0.02158122
Br       2.64892781      -0.49565647       0.94804823      -0.01084567      -0.02279501      -0.00449125
C        1.00784978       1.53705728      -0.34087944       0.00177916      -0.00921318      -0.00214666
H        0.07108703      -0.22235130       0.52511647       0.03804774      -0.00047391      -0.00914925
H        1.12367327       2.02302749       0.63383789      -0.01987813      -0.00878479       0.00024053
C        0.83031897      -0.82438309      -1.36043578      -0.01043505       0.01699260       0.01191104
H       -0.22358334      -0.73916295      -1.64655720      -0.01120374       0.01956535       0.02663617
H        1.50801790      -0.50359967      -2.16171215      -0.01477414      -0.00393769       0.02171485
H        1.02070625      -1.87661338      -1.13325679       0.00115561       0.02903618      -0.00493147
C       -0.26076167       2.06974998      -1.03527535       0.00387882       0.00310385      -0.00983778
H       -0.21010763       1.89707911      -2.11678428      -0.03432638       0.00219569      -0.00251693
H       -1.12836805       1.51059194      -0.64568731       0.00955182       0.00113731      -0.02082902
H       -0.35732385       3.15153025      -0.87468446      -0.00925393      -0.00048438      -0.01524755
