16
Properties=species:S:1:pos:R:3:forces:R:3 Coordinates=T from=T ORCA-job=T run=T Energy:=T 49.6689050=T energy=-83054.09268042792 pbc="F F F"
C        0.89257954       0.02217670      -0.07768665       0.00356997      -0.01253522      -0.02563269
H        1.61573491       2.06328292      -0.46892411      -0.00124163      -0.02127126       0.00286169
F       -1.88593862      -0.13570678      -0.61548726      -0.02204117       0.00747156      -0.01023831
Br       2.69309081      -0.32966955       0.81963434      -0.00773781       0.02183055       0.02498029
C        0.70382744       1.53492814      -0.17858518      -0.00127137      -0.01036122       0.01603770
H        0.15338612      -0.38364488       0.60578370       0.02512895       0.01845920       0.00066880
C        0.82822482      -0.69712852      -1.40782801      -0.00945371       0.00222986      -0.02618785
H       -0.23556210      -0.65555104      -1.67029568       0.00227743       0.00478249      -0.00924036
H        1.45157536      -0.22302998      -2.17114208      -0.00907838      -0.00172843      -0.00438073
H        1.12912554      -1.74262797      -1.29871569      -0.00231502       0.02074245       0.02042856
N        0.52892959       2.12598364       1.32397414      -0.01745211       0.02581045       0.01076394
O        0.86134456       3.30508316       1.44885831      -0.00232659      -0.02368145       0.02754585
O       -0.02070176       1.46965469       2.19157812       0.02964815       0.03327751      -0.00266635
N       -0.40628017       1.85725646      -0.96139239       0.01577598      -0.03104574      -0.02317730
H       -0.61631248       2.84736784      -0.96570172      -0.00538867      -0.01607053       0.01197432
H       -1.21765349       1.14912262      -0.81473199       0.00111651      -0.00666750      -0.00959192
