18
Properties=species:S:1:pos:R:3:forces:R:3 Coordinates=T from=T ORCA-job=T run=T Energy:=T 204.4228535=T energy=-27607.36299502091 pbc="F F F"
C        0.03270421      -0.14991962       0.08373755       0.03380970       0.02078097      -0.03473715
H        1.48142211       1.40896088       0.24985929      -0.02277016      -0.00712512      -0.00449787
F       -1.33662870      -0.31343567       0.27104917       0.01866138      -0.03285822       0.01296073
Cl       3.47187032       1.06549031      -1.22567958       0.05553198      -0.04245348      -0.02020905
C        0.39240165       1.34092767       0.09781301       0.00730830       0.03462444      -0.01525400
C        0.46429761      -0.90946538      -1.14144006       0.00472811      -0.01870999      -0.01924275
H       -0.12798871      -0.56225939      -1.98969117       0.04262855       0.01454805      -0.00816539
H        1.52554217      -0.73269804      -1.34612248      -0.02339784       0.03890845       0.01984288
H        0.26755242      -1.96722576      -0.98481555       0.02071990      -0.06143552      -0.01077809
N        0.63850367      -0.85948589       1.35807721       0.03125964      -0.00966003      -0.01757269
O        1.03818242      -0.15850725       2.26673122       0.00251563       0.00237699       0.00422618
O        0.62627058      -2.07951513       1.35869011      -0.07730851       0.02221212       0.02604256
C       -0.31403814       2.05983191       1.16078083      -0.01001071       0.03081455       0.04877410
N       -0.88872159       2.69702247       1.93199553       0.00633574      -0.02132583       0.00071701
C        0.11415867       2.02682980      -1.25931014       0.00365987      -0.01540221       0.02141773
H        0.84916785       1.67730288      -1.98382644       0.00078210       0.01048080       0.01381711
H       -0.90415815       1.83858289      -1.61243491      -0.00790751       0.06859968       0.04127463
H        0.26301385       3.10212581      -1.13908275      -0.06779253      -0.03590959      -0.06214221
