15
Properties=species:S:1:pos:R:3:forces:R:3 Coordinates=T from=T ORCA-job=T run=T Energy:=T 116.7212529=T energy=-26537.14427748891 pbc="F F F"
C        0.32408435      -0.07669877       0.02080556       0.02107914       0.02675883       0.08414239
H        2.38525775       1.28254388       0.05984161       0.21942889      -0.02542361      -0.13532373
Cl      -2.17027094      -1.03536226       0.18100753       0.09334747      -0.00693515      -0.09110261
F        3.26130459       1.25928877      -0.29407960      -0.32071775       0.01575977       0.10273076
C        0.25158515       1.28455128       0.09013964      -0.01547281      -0.00103931       0.20623049
H        0.23458328       1.81801513      -0.85632974      -0.05337533      -0.11682579      -0.05024053
C        0.65786730      -0.78627808      -1.24707348      -0.05501657      -0.02162951       0.00030356
H        0.15159102      -0.30694536      -2.08125499      -0.08250493       0.01479228      -0.05817597
H        1.73597506      -0.74824296      -1.42034467       0.13134044      -0.04934248       0.00982632
H        0.33373895      -1.81621180      -1.17119848       0.01816391      -0.10317367      -0.12513139
N        0.62163939      -0.87197190       1.26030361      -0.05261675       0.16414987       0.06192269
O        0.54950695      -0.29583642       2.33395704      -0.05637740       0.04008516       0.05875340
O        1.00822154      -2.02362093       1.11353224      -0.00084334       0.05288054      -0.07158651
C       -0.13515700       2.10145770       1.18375374       0.05054228       0.01190018      -0.08376949
N       -0.48187287       2.90423485       1.94304316       0.08488696      -0.01888243       0.09530537
