16
Properties=species:S:1:pos:R:3:forces:R:3 Coordinates=T from=T ORCA-job=T run=T Energy:=T 191.6698147=T energy=-92314.82792994042 pbc="F F F"
C       -0.01457553      -0.24478690       0.02952348      -0.17481714       0.20810726       0.13674962
H        1.51318997       1.24905708       0.17954017       0.03224690      -0.09275287      -0.21892442
Cl      -1.89587624      -0.35342741      -0.06815047       0.17020073       0.00388493      -0.02734809
Br       3.73339897       1.45902563      -1.03139036      -0.17787121       0.01986940      -0.02093177
C        0.40522071       1.25340110       0.12347807       0.03469496       0.19002844       0.10010045
C        0.57208654      -0.93694239      -1.21035079      -0.09136854       0.14178755      -0.12428174
H        0.06529949      -0.57084815      -2.11457217       0.06850518      -0.07829622       0.36806523
H        1.63769902      -0.69113905      -1.32695175      -0.10595172      -0.01170328       0.26110965
H        0.43850526      -2.01808353      -1.11216590       0.01412597       0.08503937      -0.13375726
C        0.32095919      -0.92678244       1.27700108       0.08977595      -0.11488906       0.03579768
N        0.59176162      -1.43837462       2.27465458       0.01760180      -0.03469852      -0.05572245
C       -0.05470069       1.97894764       1.33089936      -0.04444996       0.03701089      -0.06320463
N       -0.38489247       2.71747648       2.15815451       0.02494196      -0.34016451      -0.09465290
N        0.00972472       1.97829012      -1.07401125       0.16352976       0.19645665      -0.08246209
H        0.82974633       2.46410509      -1.46249819      -0.48040086      -0.13501942       0.28792918
H       -0.76418786       2.60786818      -0.85684138       0.46122845      -0.07807484      -0.37599221
