15
Properties=species:S:1:pos:R:3:forces:R:3 Coordinates=T from=T ORCA-job=T run=T Energy:=T 31.2759044=T energy=-93863.84665424196 pbc="F F F"
C        1.10301367      -0.04352434       0.13340827      -0.01675640       0.00298104      -0.01305848
H        0.65810480       1.87007645      -0.76126467       0.01530696      -0.01836790       0.02246205
Br      -2.70309561       0.39867445      -1.23927452       0.01889857      -0.00512749       0.00260721
Cl       2.94016489       0.30557537       0.29465712       0.01014934      -0.01091223      -0.00323337
C        0.35424079       1.28269776       0.10132365      -0.00866847      -0.01104131      -0.00289331
H       -0.73762117       1.08924889      -0.00188237      -0.01647167      -0.01517080      -0.02356337
C        0.87597965      -0.77654101      -1.19347661      -0.00402358      -0.01504547       0.01006647
H       -0.20266615      -0.88572835      -1.35629605      -0.00010549       0.01468059       0.00961335
H        1.29489242      -0.19016288      -2.01369488      -0.03094521       0.00043253       0.02113084
H        1.35680844      -1.75452649      -1.17196390       0.01278158      -0.01115663      -0.00563562
C        0.76324383      -0.92457024       1.25418499       0.01989500       0.03685493      -0.01722010
N        0.52116562      -1.70784280       2.06423920      -0.00455214       0.00300344      -0.01671743
N        0.55879266       2.16020255       1.29419430       0.01599191      -0.00247635      -0.00827801
O        0.57010896       3.36565285       1.08240895      -0.00232850       0.02202926       0.02020593
O        0.65279203       1.63752405       2.39544898      -0.00796446       0.00116816      -0.00039406
