15
Properties=species:S:1:pos:R:3:forces:R:3 Coordinates=T from=T ORCA-job=T run=T Energy:=T 25.3089846=T energy=-80000.33883614732 pbc="F F F"
C        0.03524824      -0.13761822       0.01333688      -0.08262877       0.01644833       0.05809145
H        1.58155260       1.36851248       0.00211986      -0.11844062      -0.09930120      -0.07722814
F       -1.39191899      -0.15893689      -0.05381507       0.03466488       0.03892118       0.04346509
Br       4.06628858       1.02249931      -0.98278961      -0.07211152       0.03215932       0.00373683
C        0.48129782       1.33561112       0.03591604      -0.01384776       0.00352031       0.07992734
H        0.16243342       1.76022239       0.99978608      -0.01288588       0.03092286      -0.01626967
C        0.57460873      -0.93921620      -1.15613283      -0.01871083       0.12362071      -0.05157052
H        0.28174297      -0.42432786      -2.07699118       0.08563235      -0.06730772       0.12481749
H        1.67149153      -0.95564428      -1.09160580      -0.16817461      -0.11978397      -0.13596873
H        0.13538612      -1.94568677      -1.13635956       0.22168731       0.11408379      -0.04572077
C        0.36248308      -0.78774334       1.30081920      -0.06371003       0.14840017      -0.17699311
N        0.58537132      -1.28408013       2.31511813       0.04358506      -0.11569290       0.18540789
N       -0.06403264       2.04627026      -1.12155361       0.03154800       0.09281239       0.10793757
H        0.57848985       2.79005512      -1.38166155      -0.12242912      -0.13535221      -0.02403734
H       -0.97242113       2.45041709      -0.90092371       0.24841672      -0.06548800      -0.06946404
