15
Properties=species:S:1:pos:R:3:forces:R:3 Coordinates=T from=T ORCA-job=T run=T Energy:=T 55.3978746=T energy=-9971.14991369931 pbc="F F F"
C        0.46203039       0.01759324      -0.02582579      -0.00794329      -0.00125726      -0.00498840
H        1.31798955       1.93742830      -0.41139449       0.02057341      -0.01415526       0.00557226
F       -0.85991293      -0.46261633       0.35525753       0.00955858      -0.01779517       0.01079509
H        1.47597689      -1.62939391       1.00938306      -0.00209339       0.01305847      -0.00643042
C        0.34988784       1.54157442      -0.08814703       0.00046833      -0.01200586      -0.02051672
H       -0.38853701       1.82060385      -0.85522791      -0.01576199       0.00018143       0.00794437
C        0.72059901      -0.62743755      -1.37680964      -0.00423784       0.00342657       0.01846640
H       -0.09071772      -0.41948813      -2.08633112       0.01555495       0.00209588       0.01403735
H        1.66523790      -0.27498089      -1.80585285      -0.01926112       0.01523146       0.02959197
H        0.79572686      -1.71360837      -1.24441569       0.00937997       0.00955854      -0.02391049
C        1.48248689      -0.47363406       1.05564873      -0.00378300       0.00945004       0.01388756
N        2.16664086       0.22322677       1.81774675      -0.01682633       0.01585958      -0.01589978
N        0.00930037       2.18737635       1.18583617       0.02411819      -0.00861103      -0.03008577
H        0.78675231       1.89532217       1.79349103      -0.02719507      -0.03750530      -0.01426012
H       -0.80317904       1.68915322       1.54727408       0.02458254       0.00933059       0.01724877
