15
Properties=species:S:1:pos:R:3:forces:R:3 Coordinates=T from=T ORCA-job=T run=T Energy:=T 29.2803135=T energy=-23836.114440038928 pbc="F F F"
C        0.30223416      -0.01729232      -0.03146582      -0.03017309      -0.09982696      -0.05739321
H        2.96398105       0.99156073      -0.31227978       0.05994230       0.02512528      -0.02304601
Cl      -2.33834298      -0.92904263       0.33961160      -0.01087286      -0.06325171       0.01656631
H        3.63223044       1.04461974      -0.63342800       0.01638530      -0.00210006       0.01334028
C        0.14911493       1.33124258      -0.00987887       0.25114235       0.00067193       0.10359334
H        0.06740947       1.86631808       0.92044006      -0.02095095       0.13207545       0.02094536
C        0.45547231      -0.92343173      -1.22263924      -0.10202352      -0.07491308      -0.09421041
H       -0.16231155      -0.56392366      -2.03455900      -0.04727153      -0.04438425      -0.10637575
H        1.49647609      -0.97416570      -1.57442098      -0.02545199       0.16047670       0.14451086
H        0.13160626      -1.91810470      -0.93123322      -0.00747916      -0.09856159      -0.08065306
C        0.63181860      -0.62157566       1.23195068      -0.04503950       0.20779366       0.05923324
N        1.03698078      -1.07064949       2.21721090       0.01606158      -0.04941211      -0.00639844
N       -0.02702175       2.18318826      -1.14099000      -0.24975868      -0.05081819       0.01330242
O       -0.24813559       3.37799421      -0.89252347       0.09469528      -0.11742979      -0.02899089
O        0.03863505       1.72552361      -2.28731056       0.10627186       0.06931223       0.02624014
