15
Properties=species:S:1:pos:R:3:forces:R:3 Coordinates=T from=T ORCA-job=T run=T Energy:=T 53.6325947=T energy=-84058.05231397826 pbc="F F F"
C        0.87343437       0.03204321       0.11063657      -0.01487107      -0.01780750      -0.00411325
H        0.67061392       1.95574001      -0.80006038       0.03617260       0.03125904       0.02444069
F       -2.13987130       0.59659618      -0.83137437      -0.00939755       0.00559844      -0.00555823
Br       3.57767092      -0.30994245       0.40414844       0.02394919       0.03024538       0.00067742
C        0.58300593       1.37433346       0.10566198      -0.00013959      -0.01647902      -0.00258386
H       -1.37710625       0.80632339      -0.32323108       0.01942719       0.04171351      -0.03174239
C        0.88297802      -0.68367612      -1.23026109      -0.01182888      -0.02073362       0.01239678
H       -0.14913158      -0.81937075      -1.57084998      -0.01642331      -0.01943055       0.00769578
H        1.42837342      -0.09566425      -1.96847178      -0.01617053       0.01144344       0.03229766
H        1.37278882      -1.64877467      -1.14031568      -0.01453207      -0.02422761      -0.01247056
C        0.60305884      -0.80885932       1.24379916       0.08053093       0.00128626      -0.04939212
N        0.27156702      -1.58481183       2.03312585      -0.02847671      -0.02275851       0.03497633
N        0.49332391       2.19994318       1.26827009      -0.04228936      -0.00742526      -0.05837958
O        0.37997524       3.41721364       1.06336242       0.00412982       0.03005538       0.00808451
O        0.51522588       1.68818063       2.38599717       0.00173857      -0.01512390       0.04051232
