19
Properties=species:S:1:pos:R:3:forces:R:3 Coordinates=T from=T ORCA-job=T run=T Energy:=T 53.9581757=T energy=-80631.32784935259 pbc="F F F"
C        0.77580944      -0.04762460      -0.06628119      -0.07557147      -0.10195949       0.05176794
H        1.59626271       1.83995288      -0.51262118       0.01677560       0.03221852      -0.00392391
F       -1.55405488      -0.40700818      -0.42689261       0.05747541       0.02954276       0.05738436
Br       2.94723817      -0.23502687       0.65650873       0.01465438      -0.00121934       0.00299199
C        0.63226203       1.49559676      -0.12791198       0.04546734      -0.06844387      -0.00833625
C        0.88236261      -0.78725200      -1.38937389       0.01118542      -0.01695550       0.00484510
H       -0.13408931      -0.82596513      -1.78302121       0.03085143       0.02727018       0.01201630
H        1.57134982      -0.27075364      -2.06462211      -0.04571858      -0.00118738       0.04980237
H        1.24836976      -1.80264827      -1.23560996      -0.01552576      -0.00258998       0.02338026
C        0.12230892      -0.74340451       1.03502078      -0.01853315       0.03435114       0.01598048
N       -0.17332552      -1.25223095       2.03480745       0.06548024       0.02160299      -0.14357797
C        0.42364487       2.12545917       1.25325088      -0.01007997      -0.00781144      -0.00265252
H       -0.53525965       1.82165755       1.68118418       0.00184647      -0.01868110      -0.04214183
H        1.21679321       1.84291960       1.95167569      -0.05551417       0.00828516      -0.05371092
H        0.42237344       3.21593006       1.15213698       0.01134273       0.01963282       0.05932623
C       -0.44977693       1.96809758      -1.11558337       0.01187756      -0.01145557       0.03008146
H       -0.20092593       1.68008867      -2.14155847      -0.01463807       0.01748512      -0.00223422
H       -1.39759975       1.49565053      -0.86135161      -0.01538385       0.01598872      -0.01877769
H       -0.50573522       3.06279279      -1.07465273      -0.01512776       0.02367167      -0.03864666
