15
Properties=species:S:1:pos:R:3:forces:R:3 Coordinates=T from=T ORCA-job=T run=T Energy:=T 229.5283062=T energy=-32284.459839604977 pbc="F F F"
C       -0.03959020      -0.17581333      -0.02875314      -0.05026911       0.06697843       0.02953931
H        1.51327841       1.26898681      -0.37681246       0.01596367      -0.02383277       0.09162941
Cl      -1.91631051      -0.13478180      -0.25279787      -0.02166812      -0.02699939       0.01633458
Cl       3.82966698       1.88630583       0.00349286      -0.00453488      -0.00593561       0.03164996
C        0.49357519       1.27296804       0.03588302      -0.00322748       0.05663876      -0.02043624
H       -0.12914809       1.86176876      -0.64038309       0.00891561       0.01585214      -0.04776069
C        0.54633912      -0.93268176      -1.22112302      -0.00983753       0.07985679       0.03694859
H        0.37771056      -0.35793438      -2.13454629      -0.02972900      -0.02908292       0.00975201
H        1.62519469      -1.02305637      -1.07658615       0.03175555      -0.00698176       0.00532042
H        0.10561333      -1.92345862      -1.32587290      -0.01749202      -0.03013162      -0.01559426
C        0.16221696      -0.91347807       1.21822469       0.03199464      -0.05927968      -0.03823087
N        0.33379520      -1.56018615       2.15718738       0.01756833       0.00042357       0.00107343
N        0.48968378       1.83566490       1.38419150       0.05551268       0.00553343      -0.08458330
H        0.18907335       2.80347719       1.34630638      -0.02530039      -0.05304597       0.00186704
H        1.46261200       1.86423595       1.68712133       0.00330207       0.01243874      -0.00892177
