16
Properties=species:S:1:pos:R:3:forces:R:3 Coordinates=T from=T ORCA-job=T run=T Energy:=T 136.8617828=T energy=-146890.14412098337 pbc="F F F"
C        1.11581967      -0.06869231       0.08930408      -0.00555378       0.08550123       0.00895414
H        0.89742835       1.95316198      -0.70816549      -0.03381665      -0.11450877       0.02820448
Br      -2.78281411       0.28981609      -0.86464002      -0.02026939      -0.01358041       0.03890497
Br       3.17878289       0.11329786       0.14114384       0.02482773      -0.02779151       0.06325811
C        0.52486453       1.34597562       0.12452651      -0.04108354       0.08041034       0.03143836
H       -0.56573949       1.21955951      -0.03183969      -0.04629343       0.03975532      -0.04096151
C        0.77876225      -0.77040713      -1.21437810       0.03757586       0.01429800       0.01801766
H       -0.30847607      -0.92119972      -1.24877465       0.03482720       0.03038275      -0.05033219
H        1.06909737      -0.17985030      -2.08580075       0.00782280       0.01216193       0.01198228
H        1.29819725      -1.72957209      -1.25464341      -0.07150840      -0.05869757      -0.07027645
C        0.68206902      -0.88913979       1.29298064       0.01850259      -0.01858794      -0.04373776
H        1.01978478      -0.45249955       2.23327961       0.01421492      -0.01847496       0.01648168
H       -0.41331772      -0.91063806       1.28700549      -0.03593720      -0.01862868       0.01334642
H        1.04460235      -1.91616365       1.21533003       0.05185270       0.01535537       0.05903824
C        0.75680163       2.08802595       1.36148540       0.15466964       0.01996925      -0.14007393
N        0.97036253       2.70683810       2.31170067      -0.08394628      -0.02322823       0.05970856
