19
Properties=species:S:1:pos:R:3:forces:R:3 Coordinates=T from=T ORCA-job=T run=T Energy:=T 203.1193554=T energy=-32917.5684026285 pbc="F F F"
C        0.01807637      -0.14189519       0.05041316      -0.04075747       0.03542047      -0.02504292
H        1.60334429       1.23884378      -0.06376146      -0.04279717      -0.00187904       0.02689928
Cl      -1.88336237      -0.15935400       0.16679916       0.03420253      -0.06290440      -0.02116056
Cl       3.69878337       0.58322220      -0.50696549       0.10573938      -0.03226682      -0.04451277
C        0.49282622       1.32459917      -0.02633917      -0.04985335       0.08507562      -0.02866752
C        0.42863582      -0.94369213      -1.19888837      -0.01253381       0.01452216      -0.01249210
H       -0.41399992      -1.15337213      -1.85959115       0.00822346       0.10981185       0.01721157
H        1.20028148      -0.41024809      -1.75526260       0.08235160      -0.07426681       0.06106461
H        0.86185494      -1.89583451      -0.88798820      -0.01894713      -0.02764959      -0.08614724
C        0.53401874      -0.79848521       1.32211319       0.00282550      -0.01808884       0.01252122
H        1.62430370      -0.69582153       1.31879035       0.02682344      -0.08196386       0.01392238
H        0.13323358      -0.32828033       2.21990657       0.01499291       0.05135989       0.01335096
H        0.27138336      -1.85738561       1.33447103      -0.00378990      -0.04036843       0.04154493
C        0.14943948       2.07461703       1.18004638      -0.04685601       0.00434013       0.07538052
N       -0.12199524       2.69559131       2.11455604       0.01015886       0.03575969       0.02920626
C        0.05833904       2.12907066      -1.26253349      -0.01147082      -0.00657844      -0.02149226
H        0.52886897       1.73738941      -2.16625153      -0.00608889      -0.05902495       0.04319786
H       -1.02815040       2.11694359      -1.38749203       0.04287318       0.08336664       0.00492209
H        0.40144070       3.15995745      -1.13979792      -0.09604465      -0.01761161      -0.10171057
