16
Properties=species:S:1:pos:R:3:forces:R:3 Coordinates=T from=T ORCA-job=T run=T Energy:=T 62.5027954=T energy=-79562.94016013702 pbc="F F F"
C        0.09477703      -0.05842783      -0.00433977      -0.00860012      -0.01919155       0.00073345
H        1.82058972       1.06717068       0.10552172       0.01539575       0.01161938      -0.01280753
Br      -2.00719668       0.03612010      -0.15558304       0.00893239       0.01028825       0.00632242
F        3.05175837       0.15407347       0.07110346       0.00735166      -0.00054967       0.01029293
C        0.68160594       1.34316129       0.07133103      -0.00500073      -0.01632510      -0.00020770
H        0.48507501       1.90633900      -0.84551507       0.00046892      -0.00158359       0.00365777
C        0.59053097      -0.74387744      -1.26718349      -0.00081071       0.00193538       0.00035185
H        0.21592782      -1.76808957      -1.33916779       0.01041116       0.00975565      -0.00463932
H        0.29491156      -0.19630136      -2.16617543      -0.00355812      -0.01108704      -0.00023677
H        1.68581494      -0.72884106      -1.16629322      -0.00743866       0.01913230       0.00896983
C        0.43138353      -0.86059855       1.24000824      -0.00077906       0.00112866       0.00221852
H        1.52959776      -0.84954715       1.26638491      -0.00583537       0.00325947      -0.00463855
H        0.03526757      -0.39372766       2.14390136       0.00731317      -0.01378914       0.00842236
H        0.06009006      -1.88650500       1.17559783      -0.00361266       0.01608353      -0.00969946
C        0.31028257       2.14206624       1.21959365      -0.00420921       0.00535480      -0.00285526
N        0.05856017       2.79855458       2.13838804      -0.00551713       0.00585498      -0.00201327
