18
Properties=species:S:1:pos:R:3:forces:R:3 Coordinates=T from=T ORCA-job=T run=T Energy:=T 76.9697180=T energy=-23547.757175675473 pbc="F F F"
C        0.03713042      -0.12367725      -0.00305130      -0.03620636      -0.02641252      -0.00113478
H        1.65930919       1.13362634       0.03246296       0.03391321      -0.00270420      -0.01030149
Cl      -1.89144040      -0.14373958      -0.04275437       0.01628497      -0.03151256      -0.00574285
F        2.98088293       0.30030136       0.02174814      -0.00043771       0.01279759      -0.00131089
C        0.51809922       1.32975700       0.01633328      -0.00072689       0.00594170      -0.00791609
C        0.53788583      -0.81792137      -1.25801413       0.00234077      -0.00018922      -0.01246201
H        0.22991443      -1.86719995      -1.27750708       0.00453515       0.01097374       0.02700441
H        0.19010778      -0.31465001      -2.15883874      -0.01424971       0.01501995       0.00610156
H        1.63046878      -0.72854454      -1.18635450      -0.00083623      -0.00609388      -0.01039657
C        0.49783766      -0.85088177       1.24929562      -0.00068648      -0.00451815       0.00916350
H        1.59189252      -0.75421612       1.21739569      -0.00564288      -0.01117061       0.01216005
H        0.11158642      -0.39415274       2.16302178      -0.01718839       0.01321425      -0.01538096
H        0.20122834      -1.90279253       1.22962685       0.00425127       0.00818791      -0.02595966
C        0.14232989       2.05522897       1.23278530      -0.00379802       0.02399917       0.00882420
N       -0.12924458       2.71101746       2.14668007      -0.00236008       0.01848554       0.03645099
N        0.15733861       2.07387448      -1.19495356      -0.00369879       0.00313938       0.00355687
H        0.76618595       2.88052934      -1.27983680      -0.00465583      -0.00899821      -0.01736667
H       -0.80043884       2.41027550      -1.13564019       0.02604919      -0.00439638       0.00118297
