20
Properties=species:S:1:pos:R:3:forces:R:3 Coordinates=T from=T ORCA-job=T run=T Energy:=T 51.2090515=T energy=-9601.524871665226 pbc="F F F"
C        1.15434531       0.07181577       0.12833632      -0.01265524      -0.02104612       0.00624235
H        1.58440703       2.02741803      -0.59603490      -0.03192355      -0.00910426      -0.00867067
F       -1.89552246      -0.56681186      -0.80850205      -0.01367740       0.00034421      -0.02089564
H        2.19224981       0.10314797       0.50554811      -0.02087779      -0.00051052      -0.01159391
C        0.73447884       1.55756210      -0.05748931      -0.00654740      -0.02644081      -0.00295439
C        1.13009152      -0.67103674      -1.21988520       0.01371992      -0.00552454      -0.00433707
H        0.08261106      -0.83996563      -1.49470252      -0.01013581       0.01761113       0.04363086
H        1.62937366      -0.10025051      -2.01144191       0.02158536       0.02327488      -0.00643887
H        1.63425824      -1.64257003      -1.13123621       0.01172995      -0.02133191      -0.00444662
C        0.27961147      -0.70348041       1.12873838      -0.01085308      -0.01790554       0.01808915
H        0.65279429      -1.73099910       1.23188083       0.02659953      -0.02010725       0.00145041
H        0.28533641      -0.25871074       2.13071365       0.00976861       0.02411043       0.01784931
H       -0.74104960      -0.75225658       0.72201885      -0.00899578       0.01006566      -0.03042388
C        0.63063355       2.30510212       1.28467843      -0.00227825       0.00398002      -0.02372623
H       -0.20932862       1.92914634       1.87603482       0.02544943       0.00611478       0.01696549
H        1.54871803       2.22582389       1.88477648      -0.01826965      -0.00314136      -0.00921406
H        0.44749988       3.37064073       1.09607531       0.02498874       0.03027839       0.03091667
N       -0.47592022       1.70014702      -0.86742033      -0.00038260       0.00035493      -0.00487843
H       -1.02774857       2.47947510      -0.52151602      -0.01425369       0.00159398       0.00226179
H       -1.08752115       0.83963094      -0.84301759       0.01652741       0.00364096      -0.01080215
