16
Properties=species:S:1:pos:R:3:forces:R:3 Coordinates=T from=T ORCA-job=T run=T Energy:=T 265.7535743=T energy=-22043.569410151063 pbc="F F F"
C        0.06587989      -0.05418098      -0.05433560       0.01692277      -0.02255821       0.09709038
H        1.74048555       1.32324674      -0.24399611       0.09219945      -0.18946802       0.02783973
F       -1.35818933       0.09603383      -0.02354774       0.02816889       0.00419622       0.05572142
Cl       3.98515768       0.23343443       0.33988300      -0.09927516      -0.00814678      -0.01632220
C        0.64624237       1.36543316      -0.13720961      -0.02576302       0.10032793       0.12247515
H        0.45946415       1.88326074       0.81349261      -0.04943779      -0.02123265      -0.13397228
C        0.39056248      -0.93502644      -1.24670556      -0.04351043       0.08170879      -0.12784883
H       -0.34016347      -1.74933207      -1.26630903       0.12158979      -0.06092882      -0.03152275
H        0.31847830      -0.38732641      -2.18627546      -0.02583189       0.02016421      -0.11122104
H        1.40070015      -1.33571398      -1.14451092       0.02075127       0.03359700      -0.07690833
C        0.48939304      -0.74628665       1.22675459      -0.15694362       0.01927739       0.18144490
H        1.58306359      -0.77304717       1.29463068      -0.06656956      -0.04385274      -0.03589933
H        0.08973189      -0.22840776       2.10457709       0.00870357       0.04501755      -0.02980054
H        0.07451922      -1.76010140       1.21761262       0.13540038      -0.01716160       0.10945594
C        0.07931804       2.15784746      -1.22289728       0.07246097       0.20940113      -0.21259359
N       -0.31115862       2.81085524      -2.09310507      -0.02494138      -0.14988709       0.17342229
