17
Properties=species:S:1:pos:R:3:forces:R:3 Coordinates=T from=T ORCA-job=T run=T Energy:=T 58.1210460=T energy=-22397.124926033845 pbc="F F F"
C        1.25592050      -0.09502032      -0.03074711      -0.00215091       0.02180492       0.00311008
H        2.02836202       1.50279549       1.23121264       0.01555459       0.00747644      -0.00708479
Cl      -2.77114685      -1.37510751       0.73956279      -0.01124996      -0.03358095      -0.03245305
H        2.28596157      -0.36882887      -0.31113461       0.00745638      -0.01769481       0.00427420
C        1.41372172       1.39116976       0.33805388      -0.01808356       0.03586164       0.01637658
H        1.84124164       1.95706970      -0.49102764      -0.00464595      -0.03675651      -0.00452112
C        0.34525273      -0.31926258      -1.24481308      -0.01716249      -0.00354959      -0.02078484
H       -0.70705837      -0.25493219      -0.95731447      -0.02678034       0.02384390      -0.02093192
H        0.54533764       0.39681987      -2.04860857       0.01931260      -0.00007656      -0.01979549
H        0.49699543      -1.32766935      -1.63930788       0.00011640      -0.02533196       0.00173449
C        0.81909697      -0.96930974       1.15247111      -0.00441203       0.00053970       0.01776590
H        1.35563248      -0.71215186       2.07361230       0.02493590      -0.01223195      -0.02223780
H       -0.25964878      -0.89429381       1.32660773       0.02133449       0.00313267       0.03821918
H        1.02015743      -2.02130020       0.92448213      -0.01545386       0.01714567       0.01583337
N        0.12095847       2.10644498       0.66042913      -0.01159200       0.03536962       0.01394283
O       -0.48388838       2.61272335      -0.27530305       0.01914431      -0.00554924       0.01367993
O       -0.21727909       2.15566011       1.83244307       0.01015581      -0.00134030      -0.00261339
