18
Properties=species:S:1:pos:R:3:forces:R:3 Coordinates=T from=T ORCA-job=T run=T Energy:=T 295.3265011=T energy=-11040.479564286328 pbc="F F F"
C       -0.07537931      -0.18559567       0.01767773      -0.06813517      -0.05462847       0.01003680
H        2.51163795       1.48483084       0.02390688       0.07270169      -0.02897895      -0.01916471
F       -1.61305885      -0.48169305      -0.12075862       0.05476639      -0.00123430       0.00064412
H        3.21810857       1.69724385      -0.15675205      -0.01060168       0.01372228       0.00736792
C        0.18606088       1.23955558       0.07328279       0.17570001       0.02303149      -0.00817763
C        0.44215336      -0.86885211      -1.24466089       0.00885851      -0.00637321      -0.04345770
H        0.08869434      -1.90656167      -1.28035617       0.06704041       0.04822039      -0.00602106
H        0.09459053      -0.33868024      -2.13134372      -0.05371883       0.01426289       0.06613436
H        1.54007072      -0.85406160      -1.26299786      -0.06275493      -0.07978811       0.01702047
C        0.30182026      -0.97131615       1.28488891      -0.02075343      -0.04959441       0.01087237
H        1.20475385      -1.57132084       1.11688662       0.05725129       0.10938952       0.00378866
H        0.48182356      -0.32792273       2.15017134      -0.08542950       0.03558514      -0.08711859
H       -0.50114129      -1.66754687       1.53672317      -0.03483560      -0.00202636      -0.03636465
C        0.04526505       1.96028170       1.26505907       0.04553957      -0.01129058       0.06593790
N       -0.02129729       2.61200879       2.23841006      -0.03155645       0.02378585       0.00304875
N        0.17144420       1.99833029      -1.17051243      -0.04794716       0.07622941      -0.02798255
H        0.98626105       2.60880766      -1.24170040      -0.06065638      -0.07239552       0.04324691
H       -0.64370886       2.60743653      -1.23081993      -0.00816533      -0.04267069      -0.00834659
