19
Properties=species:S:1:pos:R:3:forces:R:3 Coordinates=T from=T ORCA-job=T run=T Energy:=T 68.4361568=T energy=-151450.47879628494 pbc="F F F"
C        0.05718606      -0.09778070       0.05701458      -0.00721237       0.03189436       0.00274795
H        1.69441315       1.23707843      -0.14160855       0.01431901      -0.02213808      -0.00120280
Br      -2.01403566       0.01318517       0.26660968       0.00221095       0.00931610      -0.00719442
Br       4.00695083       0.29949663      -0.18846434       0.01786248       0.02847971       0.02658424
C        0.60915311       1.34144602       0.05064475       0.00577941      -0.01586562      -0.03870163
C        0.33607056      -0.90437999      -1.20260721      -0.00093093       0.02819307       0.02152825
H       -0.06873925      -0.44728305      -2.10103833      -0.02301239      -0.00511793       0.00077598
H        1.42549631      -0.96998791      -1.31021455      -0.00057124       0.01305881      -0.01578849
H       -0.07546191      -1.91069118      -1.09481411       0.02329312       0.00662260       0.02109305
C        0.58651477      -0.81979101       1.28862660      -0.01751839       0.00985842      -0.00215650
H        1.68199842      -0.82842072       1.21772650      -0.01265231      -0.01370780      -0.01639712
H        0.30671489      -0.30670713       2.20555593      -0.00507474      -0.01312879       0.01140602
H        0.21803512      -1.84762259       1.30328791       0.00206416      -0.00581598       0.03561916
N        0.38295608       2.05594464       1.25356120       0.03334950      -0.03434027      -0.01469058
H       -0.57795510       2.37219432       1.32167775       0.01712050      -0.00273010      -0.02352095
H        1.00065862       2.85636540       1.31334746      -0.01854606      -0.02039417       0.01059289
N        0.09016081       2.15558229      -1.19610060      -0.03861858      -0.01096497      -0.03388467
O       -0.60114567       3.14192124      -0.97631187      -0.00173715       0.03543897       0.04944241
O        0.43545388       1.79051456      -2.30751141       0.01608780      -0.00913662      -0.02080183
