19
Properties=species:S:1:pos:R:3:forces:R:3 Coordinates=T from=T ORCA-job=T run=T Energy:=T 57.9186815=T energy=-20412.070390490924 pbc="F F F"
C        1.23101633       0.01846796       0.10690262      -0.01869216      -0.00644155      -0.00332049
H        1.53474094       1.85196950      -0.99197860      -0.02552167      -0.00698037       0.02455964
Cl      -2.37557167      -0.94994431      -2.08858484       0.01033153       0.01148046      -0.00102699
H        2.23700360      -0.01923459       0.54963536      -0.01711622      -0.00609235      -0.02681136
C        0.91769452       1.53101294      -0.14137819      -0.02242596      -0.03253488       0.00711230
C        1.25198453      -0.75547940      -1.22024915       0.00237798      -0.00980182       0.02545932
H        0.26074119      -0.79527871      -1.68539389       0.02696686       0.01643168       0.00266013
H        1.96708390      -0.31943966      -1.92968537      -0.02136472       0.00824849       0.02101205
H        1.55889190      -1.79126314      -1.04122185       0.01712803      -0.01021190       0.00896768
C        0.23992560      -0.61548088       1.09397086       0.01501392      -0.00130379      -0.01554265
H        0.57050819      -1.62207452       1.37037447       0.01432925       0.00754164      -0.01211456
H        0.15264837      -0.03017968       2.01671358       0.00511839      -0.01681121      -0.01410900
H       -0.74738551      -0.71190522       0.63461963       0.00004190      -0.01392002       0.03092414
C        1.36073042       2.33556612       1.00677533      -0.02586377       0.01347296      -0.01145868
N        1.69726767       2.95983577       1.91885333       0.01481758      -0.00381691      -0.02515179
C       -0.56323979       1.82769184      -0.46569165       0.01406130       0.00236433       0.01124351
H       -0.96164076       1.12637565      -1.20554444       0.01294597       0.03873788      -0.01521115
H       -1.18391889       1.72561807       0.42595063      -0.00331192       0.01460886       0.00952564
H       -0.67632700       2.85023074      -0.83677504       0.00613549       0.00113210      -0.01228678
