18
Properties=species:S:1:pos:R:3:forces:R:3 Coordinates=T from=T ORCA-job=T run=T Energy:=T 257.7296046=T energy=-23549.128944895747 pbc="F F F"
C       -0.00781118      -0.12569465      -0.09958404       0.03099419      -0.02675169       0.07679571
H        1.61967735       1.24713392      -0.41433349      -0.16919764       0.02546666       0.13731010
F       -1.42867691      -0.04467210      -0.19499921       0.07404849       0.03355250      -0.07162845
Cl       3.73008192       0.88365991       1.17466162      -0.06454536      -0.00718746       0.00390898
C        0.56919422       1.32314597      -0.07296233      -0.10096614      -0.03088493       0.00334088
C        0.49380639      -0.85381277      -1.33954908      -0.06137741       0.02362881       0.08884087
H       -0.04253651      -1.79646820      -1.45112330      -0.01320673      -0.10609812      -0.00831044
H        0.33084887      -0.26225723      -2.24312872       0.02786979       0.02490735      -0.04139205
H        1.56108258      -1.05664672      -1.22435833       0.00475076      -0.00786602      -0.10676534
C        0.28636627      -0.89444554       1.17523001       0.02735883      -0.01849553       0.04342157
H        1.35707516      -0.88659873       1.39927158      -0.01369673       0.00288953      -0.02821200
H       -0.24742367      -0.43260968       2.00629141       0.04602417       0.03088372      -0.01200241
H       -0.06163137      -1.92790160       1.05872937       0.04424749       0.05122851       0.03021008
N        0.51314291       1.94172436       1.26675865       0.03704885      -0.01005254      -0.07208545
H        0.43787378       2.94956537       1.16545028      -0.02292636      -0.01839909      -0.02257610
H        1.43987236       1.77694518       1.67180407       0.02648773      -0.06873938      -0.00944113
C       -0.16161579       2.14211817      -1.05000629       0.19245606       0.09631995       0.05729055
N       -0.68938013       2.83296382      -1.80825988      -0.06479277       0.00364158      -0.05703207
