18
Properties=species:S:1:pos:R:3:forces:R:3 Coordinates=T from=T ORCA-job=T run=T Energy:=T 83.1347519=T energy=-81069.46657760662 pbc="F F F"
C        0.99440840      -0.02476162       0.12729885      -0.02250592       0.02263726      -0.00278115
H        1.81550358       1.73451548      -0.74261620      -0.01311261      -0.00960562      -0.01172111
Br      -2.77847216      -1.73102983      -1.31919623       0.01467620      -0.02760062       0.00929269
F        2.33315142      -0.30127235       0.60949632      -0.03850971      -0.01071503      -0.00143807
C        1.04092624       1.52447080       0.01314203      -0.00606650       0.03279292       0.02293303
C        0.84618637      -0.70341721      -1.21792974       0.00930664       0.00276726      -0.01697100
H        1.12960201      -1.75247860      -1.11147075       0.00177354      -0.00913243      -0.02963221
H       -0.19879322      -0.69620796      -1.55030072       0.01194555       0.00643782       0.00976227
H        1.48929486      -0.24130768      -1.97383136       0.04058388      -0.01171057      -0.01127889
C        0.01199190      -0.55293409       1.15358636      -0.00763168       0.00000195       0.01306965
H        0.04034643       0.03659110       2.07100620       0.02581671       0.00764917       0.00483204
H       -1.00117404      -0.56678027       0.73750886       0.01623404       0.01140954      -0.00303386
H        0.27371877      -1.58899902       1.37985220      -0.01342466      -0.00693024       0.01340288
N        1.35786166       2.11665284       1.32104799       0.00054100       0.01567660       0.03888206
H        1.45490276       3.12294643       1.23711202       0.01451140      -0.00029462      -0.03198678
H        2.24921720       1.73567521       1.61923247       0.00028914      -0.02722604       0.00345058
C       -0.19711609       2.13205894      -0.48886707      -0.01907823      -0.01717226       0.02315517
N       -1.11885583       2.70416597      -0.87688881      -0.00700970       0.03670090      -0.01504359
