18
Properties=species:S:1:pos:R:3:forces:R:3 Coordinates=T from=T ORCA-job=T run=T Energy:=T 72.7144626=T energy=-13175.545173823219 pbc="F F F"
C        0.16119091      -0.00688487       0.01056541      -0.02584399       0.00732074      -0.01453476
H        1.69459526       1.40767563      -0.15986052       0.00337426       0.02925532      -0.00642005
F       -1.29517971       0.01404950       0.12587389       0.00758887       0.01739842       0.01501020
F        3.09017269      -0.19536982       0.27695911      -0.00782350       0.02958120       0.00435645
C        0.60420393       1.46945602      -0.08676981       0.00172747      -0.02149721      -0.00318908
C        0.49418510      -0.81368410      -1.23657983      -0.02216089       0.01104705       0.00938582
H        0.08491512      -1.82648129      -1.13139016       0.03128241      -0.00778944      -0.01525668
H        0.10037084      -0.35734567      -2.14714059       0.01993725       0.00915839      -0.00047236
H        1.58827210      -0.85352872      -1.25991530      -0.02843836      -0.03520884       0.01395457
N        0.71381054      -0.54987294       1.21671125       0.00126597      -0.00367923      -0.04816372
H        1.77333119      -0.46107946       1.02510662       0.00677379      -0.01056663       0.02684751
H        0.51961642      -1.55070530       1.22774997      -0.01764903       0.01071330      -0.00974180
N        0.26141312       2.24069648       1.12728498       0.01257001      -0.02005792      -0.02848342
H        0.72831011       1.76449933       1.89830298      -0.00891933       0.01645863      -0.00560750
H       -0.73026698       2.06396066       1.29865425       0.02396075       0.00405505       0.03432483
N        0.03919290       2.09752839      -1.28343256       0.00201954      -0.01199406       0.02866823
H        0.26790388       3.08699814      -1.22910981      -0.00772719      -0.01202727       0.01638669
H       -0.97584263       2.03894179      -1.20993623       0.00629324      -0.02008616      -0.01369418
