15
Properties=species:S:1:pos:R:3:forces:R:3 Coordinates=T from=T ORCA-job=T run=T Energy:=T 68.4730238=T energy=-12673.872970534258 pbc="F F F"
C        0.12110347      -0.16405341       0.06750448       0.00671210       0.00615135      -0.00827349
H        1.58794875       1.31620064       0.03841623       0.01041354      -0.00866074      -0.01427520
F       -1.28747760      -0.31698865       0.22019855      -0.01247740       0.00194168       0.00602975
F        3.00520288       0.16979985       0.06242042      -0.00012881       0.00606800       0.01891864
C        0.47310361       1.33334216       0.04136888       0.00841278       0.01035177       0.01253678
H        0.10966049       1.79991289      -0.88072140      -0.00501302      -0.01262868       0.01904269
C        0.51173806      -0.80777176      -1.26157138       0.00430437       0.00103435       0.00210515
H        0.00419443      -0.35280774      -2.12100706       0.00410562       0.00783993       0.02359860
H        1.59650580      -0.67764304      -1.32639652       0.00138776      -0.00169533      -0.03052851
H        0.26228558      -1.87452297      -1.23905926      -0.00529636       0.00352037       0.00630358
N        0.78308374      -0.73875365       1.20581566      -0.00198886      -0.01485715      -0.03375464
H        1.79311718      -0.51807400       1.01063726      -0.00449054      -0.00261871       0.02180708
H        0.67446023      -1.75019497       1.16134483       0.01875078      -0.01423078      -0.00166125
C       -0.04596052       2.08424782       1.17530836      -0.00398886       0.00159248      -0.01483943
N       -0.45014396       2.73299305       2.04132254      -0.00424562       0.01223954      -0.00800259
