17
Properties=species:S:1:pos:R:3:forces:R:3 Coordinates=T from=T ORCA-job=T run=T Energy:=T 161.9207829=T energy=-11476.467021825541 pbc="F F F"
C        0.13369730      -0.17837004       0.01918481       0.02013949       0.09007463      -0.02754653
H        1.61790237       1.33764759       0.02029314      -0.14260035      -0.02758633       0.01821368
F       -1.29699464      -0.26796819       0.20901532      -0.06339841       0.00320534       0.00902705
H        3.23507320       0.33298063       0.48883459      -0.08610080      -0.02202430      -0.02239037
C        0.49443452       1.32583730      -0.00269556      -0.05808052       0.01151277       0.01013065
C        0.39770762      -0.83482061      -1.32656280       0.05596022       0.03512458      -0.05522122
H       -0.20593970      -0.37519487      -2.10962175       0.02396855      -0.05096947      -0.06578347
H        1.45590815      -0.70124773      -1.56326687       0.06333320      -0.04362170      -0.03626682
H        0.17743846      -1.90670939      -1.27427203      -0.03357157       0.02974051       0.06357068
N        0.79381132      -0.75480050       1.13728936      -0.01423739       0.07792159       0.01082295
H        1.79917454      -0.43959413       1.08304309       0.11387986      -0.00432855       0.02371392
H        0.78873273      -1.76859602       1.06387497       0.00556327      -0.00228937      -0.03869372
C       -0.00873240       1.99460299       1.21226282       0.05575434       0.07016188       0.09176703
N       -0.41114704       2.63410586       2.08839854       0.03691619      -0.05905405      -0.10451502
N       -0.00512367       1.99279476      -1.21886510       0.01213552      -0.05293737       0.03025948
H        0.32946194       2.95213462      -1.24903894      -0.00020318      -0.08660420       0.06454401
H       -1.02072883       2.02869280      -1.18465020       0.02063516       0.03548782       0.02460855
