14
Properties=species:S:1:pos:R:3:forces:R:3 Coordinates=T from=T ORCA-job=T run=T Energy:=T 104.4247738=T energy=-22916.358676486532 pbc="F F F"
C       -0.06813096      -0.05504516      -0.24075625      -0.00651780      -0.00497713      -0.01796463
H        1.44345029       1.41188017      -0.54987765      -0.03456846       0.02216291       0.00342144
F       -1.43754017      -0.12632919      -0.54825006       0.01888292       0.02712927      -0.01030340
Cl       3.11287625      -0.12246323       1.06128706      -0.00024007      -0.00093035       0.00275178
C        0.41006686       1.41601835      -0.17644338      -0.01779462      -0.00686004       0.01595661
H        0.02247344      -0.49061631       0.76077051       0.00033421       0.05360283      -0.01169047
N        0.65410131      -0.74578401      -1.27441410      -0.00717446      -0.02089477      -0.00309889
H        0.35493593      -1.71734296      -1.28203406       0.01149560      -0.01251932       0.01897294
H        1.63395784      -0.74355884      -0.97977411       0.01302565      -0.04282831      -0.01538596
N        0.33511880       1.91000267       1.21014593       0.01242356      -0.00361958      -0.00078068
H        0.61833582       2.88706223       1.21445492      -0.02691295       0.01773511      -0.00433468
H        1.09018995       1.41445468       1.69204806       0.00681305      -0.03580214      -0.00623446
C       -0.37326855       2.27617169      -1.07358257       0.03302916       0.04261284      -0.00573492
N       -0.92627722       3.00728551      -1.77407551      -0.01263066      -0.03907251       0.03241646
