14
Properties=species:S:1:pos:R:3:forces:R:3 Coordinates=T from=T ORCA-job=T run=T Energy:=T 143.9776757=T energy=-26974.1989239032 pbc="F F F"
C        1.00804860      -0.06911307      -0.00763272      -0.00515103       0.01349709      -0.02364243
H        1.78411011       1.91247517      -0.05515809      -0.00791725      -0.02986165      -0.01868685
Cl      -2.18427598      -0.55000823      -0.14903505      -0.01245469      -0.01721021       0.00644995
F        2.35455442      -0.25236270       0.37137753      -0.02620959       0.00483015       0.01295524
C        0.78394613       1.46615884      -0.06101612      -0.01532820       0.01452911       0.01097959
H        0.39403670      -0.49923504       0.78405698       0.02293357       0.01713091       0.00316250
N        0.83881054      -0.65495750      -1.30548852       0.00827707      -0.00298278      -0.01871704
H       -0.17844862      -0.70127113      -1.44972999      -0.00160841       0.03351702       0.02292245
H        1.13718509      -1.62391084      -1.21965713       0.01411140      -0.01550293      -0.03216760
N        0.17634602       2.00461923       1.25049445       0.01787315       0.03138499       0.00532847
O       -0.46585338       3.03414900       1.18803967      -0.01792832      -0.01144634       0.02631934
O        0.48213192       1.40856383       2.26641257       0.00188690       0.00548587      -0.00453589
C        0.07258239       2.01044272      -1.21168869       0.03459056      -0.01885187       0.02003775
N       -0.37643356       2.51827490      -2.14237214       0.00745216      -0.01744189      -0.00907266
