12
Properties=species:S:1:pos:R:3:forces:R:3 Coordinates=T from=T ORCA-job=T run=T Energy:=T 48.7713886=T energy=-21410.46757136761 pbc="F F F"
C        0.75978631      -0.19824744       0.22691284      -0.01695492       0.02886891       0.02158295
H        1.20370722       1.77598467      -0.33895094       0.00781219      -0.03701635      -0.00817171
F       -1.25933149       0.17578268      -2.38977791      -0.04957347       0.06390222       0.02986407
Cl       3.82355762       0.28949947       0.47949236       0.06958092       0.00672254      -0.04249334
C        0.38741201       1.26830385       0.18979498       0.00769740       0.06964923       0.00604721
H        1.57073307      -0.47910687       0.89925004      -0.06434156      -0.01067082       0.01661479
H       -0.53649755       1.39967027      -0.38126734       0.08477770       0.01624169      -0.03865124
N        0.20228323      -0.98988751      -0.60257770       0.08242733       0.03056687      -0.00110985
H       -0.72132376      -0.35206634      -1.77540340      -0.03415518      -0.07335413       0.01000475
H        0.59905979      -1.92673103      -0.55331436      -0.01684280      -0.01389704       0.02300053
C        0.25924014       1.90225831       1.50059790      -0.03424270      -0.00489392       0.01336637
N        0.12885406       2.43991796       2.51259936      -0.04430516      -0.06214116      -0.01918760
