14
Properties=species:S:1:pos:R:3:forces:R:3 Coordinates=T from=T ORCA-job=T run=T Energy:=T 137.5808645=T energy=-17167.770104636453 pbc="F F F"
C        0.84386360      -0.11330005       0.11605796      -0.00624844       0.00247395       0.01053146
H        1.70834172       1.67953854      -0.62384189       0.02167034       0.01270278      -0.03645872
F       -1.47697834      -0.15989335      -0.89777978      -0.00043390      -0.00414171      -0.02049823
F        2.05341732      -0.25780839       0.85723357      -0.00660355      -0.01090464       0.03304309
C        0.77348968       1.41686292      -0.12762038      -0.00364740       0.01699434      -0.04048144
H        0.03150145      -0.41504207       0.77493347      -0.00979951      -0.01032258       0.01790831
N        0.93952962      -0.83599953      -1.10661528       0.00609671      -0.00169477       0.00592394
H       -0.06970783      -0.73954022      -1.41302780      -0.01892364      -0.00341922       0.00195639
H        1.05594193      -1.81640441      -0.84855841       0.01086305       0.04469335       0.00620138
C        0.68386471       2.14591521       1.13576776      -0.02457582       0.00671297       0.00047595
N        0.67494079       2.70989538       2.14110220       0.00886665      -0.01721555      -0.02141894
N       -0.31389879       1.92935455      -1.10252761      -0.00152665      -0.01743361       0.02181092
O       -1.21950015       2.59504710      -0.63607571      -0.00429261      -0.00764895       0.02432914
O       -0.04873662       1.80277839      -2.28395352       0.01582098      -0.00425543       0.01004452
