16
Properties=species:S:1:pos:R:3:forces:R:3 Coordinates=T from=T ORCA-job=T run=T Energy:=T 48.8299526=T energy=-22832.645188360337 pbc="F F F"
C        0.05483236      -0.25054187       0.24661363      -0.07149492      -0.08546571       0.03643871
H        1.68376124       1.13583732       0.25198969      -0.05462524      -0.02210762       0.05531133
Cl      -3.18527984       0.42703954      -0.52951231       0.05334988      -0.00384740       0.00097509
H        3.35925399       0.57432297      -2.26772291      -0.22898891      -0.17237845       0.12695145
C        0.59256196       1.15793513       0.16160470      -0.07539595       0.20727236       0.06304690
H       -0.91985253      -0.36943692       0.73018718       0.07288148       0.00798941      -0.25066568
N        0.73329930      -1.16946155      -0.31235025      -0.03598075      -0.00959696       0.01265062
H        0.21552755      -2.05017018      -0.27242328       0.01853850       0.01534682       0.05455046
H        2.81021821       0.17573505      -1.94146800       0.25834353       0.12033805      -0.13213326
N        0.13444617       1.96274492       1.38041485      -0.11654479       0.05799235       0.18237913
O        0.17233804       3.18653369       1.32348851       0.10718877      -0.29130734      -0.06388276
O       -0.21278950       1.32302088       2.36208802       0.15812642       0.12386123       0.09942444
C        0.17527829       1.87897025      -1.11222451      -0.08506921       0.09755386      -0.14796908
H        0.38508367       1.22828652      -1.96081164       0.02605833      -0.01064513      -0.03198796
H       -0.89907202       2.07509929      -1.09969344       0.00567617      -0.07456944      -0.01901720
H        0.73273250       2.80962826      -1.22876387      -0.03439613       0.03682737       0.01991645
