14
Properties=species:S:1:pos:R:3:forces:R:3 Coordinates=T from=T ORCA-job=T run=T Energy:=T 18.4140241=T energy=-19970.289262438382 pbc="F F F"
C        0.77494123      -0.06044544      -0.10580351      -0.09541816      -0.04828791       0.01666890
H        2.05300761       1.60389124      -0.58029900       0.13622412      -0.03183087       0.03864348
Cl      -2.60266976      -0.03851901       1.18314205       0.00999241       0.00168566      -0.00871381
F        1.81406770      -0.59166686       0.74119915       0.10484324       0.03992825       0.07825180
C        1.02193581       1.42702168      -0.25115392      -0.07333771       0.09477235      -0.04306406
H       -0.16580621      -0.23248587       0.42929296      -0.01695927      -0.10068003      -0.18816534
H        0.91063626       1.86920045       0.73938718       0.03988572       0.08657686       0.08620817
N        0.78453525      -0.72500957      -1.36611785      -0.13343803      -0.24934299       0.15487148
H        0.49806860      -1.69495480      -1.26034636       0.03902024       0.12287061      -0.01046779
H        1.72182230      -0.70157259      -1.74965928       0.13323296      -0.06246343      -0.11602940
C        0.03321671       2.04733767      -1.24001167      -0.00148406       0.05733640      -0.04208510
H        0.27973898       1.71695681      -2.25215793      -0.16062305       0.00585728      -0.02399318
H       -0.98364239       1.71672331      -1.00347416       0.04224476       0.11684735      -0.03997510
H        0.07134481       3.14354212      -1.22391896      -0.01730103      -0.03783281       0.08025663
