13
Properties=species:S:1:pos:R:3:forces:R:3 Coordinates=T from=T ORCA-job=T run=T Energy:=T 30.3169490=T energy=-14659.036608858778 pbc="F F F"
C        1.07522346      -0.08944989       0.16847183       0.05790300       0.14226748      -0.04009121
H        0.91113130       1.91316239      -0.65766588       0.11523535       0.03993659       0.10929631
F       -1.27256428       0.50329201      -1.81297435       0.02157661      -0.00489893       0.07018042
F        2.49231685       0.10396662       0.37400286       0.06667155       0.06340201       0.02588004
C        0.41881561       1.27131997       0.07261500      -0.12015873       0.08631036      -0.13935718
H        0.77098238      -0.58023630       1.09247038      -0.01498205      -0.13085046       0.10659808
H       -0.60595757       1.14264391      -0.37397612       0.01192672      -0.05912822       0.02157200
N        0.84014209      -0.81931453      -1.01337305       0.13791048       0.00894375      -0.02067504
H        0.03636132      -0.39433116      -1.53965784      -0.22318399      -0.02710697      -0.01506732
H        0.66925277      -1.79565103      -0.81653896      -0.03795040      -0.04011282      -0.02273321
N        0.36095306       2.03053417       1.35476315      -0.11312585      -0.11373043      -0.00695508
O       -0.06832205       3.18137007       1.29723683       0.14466540       0.01190164      -0.05331576
O        0.67236860       1.47722640       2.40795682      -0.06783373       0.01947528      -0.02386599
