15
Properties=species:S:1:pos:R:3:forces:R:3 Coordinates=T from=T ORCA-job=T run=T Energy:=T 68.6174142=T energy=-77296.25598632351 pbc="F F F"
C        0.54310669      -0.08911427      -0.07096386      -0.02237824      -0.00659397       0.01521857
H        1.65728031       1.63121796      -0.17177547       0.00201542       0.01752878      -0.02889451
Br      -1.75129077      -0.59323214       0.56489324       0.01496405       0.01542447      -0.02316156
H        2.85849682      -0.61402698       0.98464529      -0.02694179      -0.00611995      -0.00106812
C        0.57764403       1.43736582      -0.10928642       0.00546900       0.01150921      -0.00443152
H        1.15437905      -0.52039157       0.74416032       0.01518155      -0.02721247       0.00272500
N        0.73589555      -0.70243598      -1.27665279      -0.00463955       0.00994687       0.00946450
H        0.08155506      -0.46396010      -2.00695499      -0.01587115      -0.02041243      -0.00429324
H        0.88566884      -1.70029927      -1.19399144       0.01738851       0.01438910       0.01114029
C        0.14644428       2.06845747       1.14441342       0.00574601      -0.00010098      -0.00512269
N       -0.14132121       2.68211676       2.07774129       0.00450256      -0.00479159      -0.01454183
C       -0.12951796       2.09607825      -1.30723340      -0.00206994      -0.00024975       0.01488324
H        0.28835384       1.72879798      -2.24895931       0.02009307       0.00145757       0.03311899
H       -1.20047028       1.88530736      -1.28409717       0.00448389      -0.00245809       0.00427099
H        0.01628633       3.17900273      -1.28396789      -0.02541542      -0.00161471      -0.00129216
