15
Properties=species:S:1:pos:R:3:forces:R:3 Coordinates=T from=T ORCA-job=T run=T Energy:=T 121.9061247=T energy=-29483.31806494192 pbc="F F F"
C       -0.01349961      -0.11958062      -0.01333518      -0.00746770       0.00585704      -0.00266728
H        2.13070297       1.10611479      -0.03880768      -0.03835173      -0.00254631      -0.00811208
Cl      -1.97068235      -0.62002501       0.06664552       0.01914668       0.01167885      -0.01373109
F        2.96102130       0.71363344      -0.31395229       0.02788185      -0.00664786      -0.00350980
C        0.24425587       1.31136584       0.05152128      -0.04668554       0.00626198       0.00635214
N        0.46793695      -0.75337287      -1.15726747       0.01768547      -0.01791370       0.02346990
H        0.33862384      -1.75574582      -1.09768671      -0.02267819       0.03598422      -0.00573740
H        1.44808272      -0.52379532      -1.29925152      -0.02551638       0.01146969      -0.01422446
N        0.41785620      -0.90336452       1.31190063       0.01911702       0.00833049      -0.01429633
O        0.50353602      -0.29603889       2.35763559      -0.03444467      -0.01881971       0.01800804
O        0.65138990      -2.09278182       1.16087785       0.04328745       0.00494214       0.01173473
C       -0.05507092       2.10210925       1.19955936      -0.02520874       0.04516384       0.02699588
N       -0.27869485       2.82723988       2.07665398       0.03961894      -0.05386483      -0.08097285
C        0.14163069       2.01718099      -1.18571733      -0.02158251       0.00144512      -0.01712430
N        0.08466807       2.62091443      -2.17497466       0.05044957      -0.04217512       0.07885330
