14
Properties=species:S:1:pos:R:3:forces:R:3 Coordinates=T from=T ORCA-job=T run=T Energy:=T 171.0956513=T energy=-17168.831030578516 pbc="F F F"
C        1.22063699      -0.04291052      -0.18367626      -0.16263787       0.12643490      -0.02780017
H        1.31895296       1.97139354       0.50629627       0.03445175       0.06669605       0.18864811
F       -1.88794002      -0.20645236      -1.11748027       0.20827890      -0.19365268       0.15511594
F        2.61783943       0.09813781      -0.30333722      -0.10072908      -0.31061097      -0.15925301
C        0.60677178       1.33871337      -0.01856084      -0.29737927      -0.06994334       0.24986302
H       -0.27510554       1.21568165       0.61474477       0.00569456       0.13569590      -0.07043651
N        0.57113208      -0.91274708      -0.89753637       0.13636580       0.02047529      -0.19903248
H       -0.98755419      -0.61205350      -1.01871520      -0.08405517       0.15907072      -0.20385199
H        1.07402602      -1.79009036      -0.98550308       0.01100148      -0.00112358       0.03058917
N        1.25753094      -0.66054119       1.58236081      -0.01055615       0.13518139      -0.19791917
O        0.58756362      -0.14031170       2.47324651      -0.08836856       0.26530024       0.16486073
O        1.79299110      -1.75189666       1.71146334       0.23845784      -0.29192927       0.07778960
C        0.23244399       2.03111597      -1.25021152       0.06432403       0.07577111       0.07285935
N       -0.03850441       2.71065839      -2.14189555       0.04003654      -0.10819145      -0.08114022
