19
Properties=species:S:1:pos:R:3:forces:R:3 Coordinates=T from=T ORCA-job=T run=T Energy:=T 80.4731962=T energy=-84124.54879427342 pbc="F F F"
C        1.16158591       0.05005230       0.07100632      -0.00977337      -0.16842249       0.00030680
H        1.70133922       1.92898082      -0.52953295      -0.06971461      -0.03454393       0.01060219
Br      -2.46577260      -1.21946507      -2.18999941       0.15586719       0.04893684       0.05457706
F        2.52641300      -0.06687539       0.33063575      -0.02698103      -0.02735007       0.22287397
C        0.80899142       1.54530438      -0.01475398      -0.04940663      -0.09850407      -0.05827526
N        0.85424206      -0.68542848      -1.04941718      -0.03503667       0.27744222      -0.30091800
H       -0.13069266      -0.66666453      -1.34737170      -0.03913711      -0.08954214      -0.11523184
H        1.17992824      -1.63959490      -0.99894624      -0.01121537      -0.11818522       0.16353930
N        0.57450876      -0.77210253       1.40421308       0.04042204      -0.22362991       0.02460562
O       -0.08374057      -0.22410219       2.27427825       0.11011367       0.02923984      -0.14645940
O        0.83705329      -1.96725144       1.38142947       0.00187599       0.28858135       0.08164366
C        0.69362598       2.32370993       1.30513557       0.00547260      -0.06576587      -0.08838712
H       -0.25674001       2.12311836       1.79771490       0.06073684       0.03341882       0.04189325
H        1.50044270       2.08098842       2.00186225      -0.01319738       0.05478022      -0.00413509
H        0.74087083       3.39260787       1.06073806       0.06592503      -0.06555589       0.11935303
C       -0.39743148       1.80846558      -0.92392240      -0.08919609       0.03237925      -0.02797386
H       -0.16154477       1.61490740      -1.97044438      -0.00322599       0.04331576      -0.01235202
H       -1.26542738       1.18608790      -0.70055480      -0.03667521      -0.00976886       0.13288298
H       -0.69737241       2.85269624      -0.81685566      -0.04004020       0.08747679      -0.09633793
