15
Properties=species:S:1:pos:R:3:forces:R:3 Coordinates=T from=T ORCA-job=T run=T Energy:=T 86.4164350=T energy=-17520.671880370737 pbc="F F F"
C        0.02804439      -0.09884426       0.36932011       0.01201478      -0.05404617       0.00132455
H        1.20277897       1.05654132       1.76349215       0.05557296       0.00637641       0.03114011
F       -1.24896862      -0.07898626       0.95246263      -0.04073733       0.00482010       0.01117929
H        2.31823139       0.58385846      -1.52346162      -0.02343518      -0.01055516       0.02926306
C        0.84883122       1.11639880       0.74306245      -0.03483102      -0.02271236      -0.00755611
H        1.69252821       1.14238750      -0.02289477      -0.01102168       0.00223023      -0.01271589
N        0.02737529      -0.39202510      -0.94659616      -0.00508549      -0.01799197      -0.02362835
H       -0.23780765      -1.34768879      -1.14622894      -0.00152120      -0.02704617      -0.03152273
H        0.94624805      -0.07546948      -1.40132025       0.04829718       0.02642773      -0.00156865
N        0.63939318      -1.38355744       1.27286972       0.01003502      -0.02539147      -0.02325216
O        0.55342564      -2.48205333       0.74616824      -0.02655796       0.03651375      -0.01527519
O        1.09187696      -1.18307326       2.38784328       0.00557442       0.03347806       0.05451918
N        0.11038788       2.39069953       0.61990243       0.02683619       0.01488931      -0.05068585
O       -0.59075559       2.57297828      -0.36809617      -0.02361017       0.04333757       0.01583071
O        0.31641920       3.23830099       1.49583882      -0.00780422      -0.01819471       0.01261147
