13
Properties=species:S:1:pos:R:3:forces:R:3 Coordinates=T from=T ORCA-job=T run=T Energy:=T 51.3929032=T energy=-14113.883060446304 pbc="F F F"
C        1.13765810      -0.05323050      -0.17978127       0.00769053       0.00107661      -0.00363282
H        0.90371914       1.89894909       0.76153336      -0.00089679       0.00314169      -0.01573119
F       -1.77370196      -0.17643027       0.09251687      -0.01524829       0.01668073      -0.03684648
F        2.48010541       0.08519040      -0.63857071       0.01764843       0.02053783      -0.01314053
C        0.47548847       1.33147862      -0.06921710      -0.01484506      -0.00197353      -0.00197861
H       -0.60126570       1.07522919       0.12318138      -0.02052203      -0.01951726       0.02744851
N        0.38569739      -0.85505233      -1.05905177       0.00363381      -0.01473487       0.01938434
H       -0.63842125      -0.72854463      -0.73621884      -0.00497559      -0.02768335      -0.00557987
H        0.67076261      -1.82675156      -0.99164170      -0.01635014      -0.01654949       0.01885740
C        1.30329682      -0.63985900       1.18944422      -0.01548089      -0.00731092      -0.00885634
N        1.41021854      -1.15589055       2.21635479       0.03125811       0.01683391      -0.00489469
C        0.60201330       2.10402420      -1.29443785       0.01662323       0.01029712       0.00883995
N        0.67561242       2.76335461      -2.23933807       0.01228738       0.02241975       0.00951009
