16
Properties=species:S:1:pos:R:3:forces:R:3 Coordinates=T from=T ORCA-job=T run=T Energy:=T 124.4760966=T energy=-15183.249215271537 pbc="F F F"
C       -0.05882565      -0.15623896       0.10742070       0.00768828       0.00724252      -0.01196457
H        1.60455040       1.16112224       0.01505399      -0.01312338      -0.01233543       0.02411690
F       -1.50413141      -0.05744574       0.04529090      -0.00991288       0.02274551      -0.01984334
F        2.60957900       0.33779248      -1.43276926      -0.04440498      -0.00550350      -0.00616882
C        0.50938819       1.28986977       0.07889669       0.00154570      -0.00064159      -0.01685057
N        0.45412587      -0.87974580      -0.96656079       0.01199075       0.01311574       0.02873860
H        0.45448509      -1.87762124      -0.79934331       0.00190754       0.00076745      -0.00079592
H        1.43073361      -0.47757668      -1.26478206       0.02120830      -0.02112157      -0.02244156
C        0.14941190      -0.82186630       1.42547288       0.01069663      -0.04106762       0.08060272
N        0.34030051      -1.40984976       2.40115714       0.00556683       0.03899757      -0.07131048
C        0.12045325       2.06894054       1.24960927       0.04661870      -0.02945680       0.00582672
N       -0.15443326       2.73410936       2.15221541      -0.03855230       0.02525324       0.03784722
C        0.12525735       2.01458597      -1.22694821      -0.00064780       0.01970472      -0.01961774
H        0.68139619       1.52886998      -2.02391973       0.01000775      -0.01416134      -0.02917732
H       -0.95001230       1.98561464      -1.40647941      -0.01686125      -0.04122736      -0.01447841
H        0.44786718       3.05729119      -1.17735541       0.00581099       0.02660886       0.03264417
