14
Properties=species:S:1:pos:R:3:forces:R:3 Coordinates=T from=T ORCA-job=T run=T Energy:=T 86.2630752=T energy=-26428.654141065253 pbc="F F F"
C        0.04437274      -0.09482846       0.04222824       0.01473900      -0.01898138       0.00099476
H        2.27604082       1.02425757      -0.05528598       0.00262766       0.02348232      -0.03969277
Cl      -2.28605927      -0.74832809      -0.01393204      -0.03018371      -0.01633676      -0.05238775
F        3.03689523       0.65517876      -0.46804881      -0.00050046      -0.02431243       0.00491872
C        0.19345450       1.30978216       0.06847773       0.02948481      -0.00535566      -0.00897275
N        0.43460951      -0.75327689      -1.12795264       0.01914669      -0.00000697       0.03098080
H        0.21824642      -1.73813101      -1.13938038      -0.03968230      -0.00351960       0.05098339
H        1.38909151      -0.54533689      -1.40093712      -0.04539712       0.05281085      -0.01183099
C        0.17375239      -0.81063093       1.29458974       0.02802183      -0.05096968       0.03604939
N        0.41395927      -1.41477868       2.25047375       0.00775462       0.04077966      -0.03573741
C        0.12684847       2.05499521       1.27556798       0.00774564      -0.02401761       0.04338349
N        0.11672119       2.68050761       2.25081866      -0.02293609       0.01884347      -0.01144409
C        0.16602554       2.04276615      -1.15077236       0.03352179      -0.01222180      -0.06190565
N        0.17752516       2.65633544      -2.13345517       0.00239866       0.01103158       0.04908608
