17
Properties=species:S:1:pos:R:3:forces:R:3 Coordinates=T from=T ORCA-job=T run=T Energy:=T 91.4668436=T energy=-23985.026488690226 pbc="F F F"
C        0.40917805      -0.15857124       0.08466449      -0.00118088      -0.01137914       0.05351969
H        1.67038317       1.48539200       0.02646895       0.06118741       0.07770465      -0.01238745
Cl      -2.67695728       0.30073083      -0.05421183      -0.00376024      -0.01604855      -0.08281339
F        3.31332570      -0.05201737      -1.60183229      -0.08652866       0.03428719      -0.01827919
C        0.58129216       1.36266643       0.08689158       0.03362165       0.02508719      -0.05898701
N        0.92289862      -0.84854402      -0.86460326       0.03847580       0.00862946       0.01309788
H        0.79322928      -1.85083508      -0.73631473      -0.02763372       0.00963457       0.02606366
H        2.38195974      -0.27596667      -1.52205159       0.01267281      -0.00246693      -0.02147579
C       -0.09985889      -0.81534336       1.27038612      -0.02762631      -0.11154704       0.23069234
N       -0.26522009      -1.38658105       2.26345265      -0.00407770       0.03951184      -0.14024999
C        0.07464726       2.04285748       1.36684629       0.00841765      -0.06132578       0.01693905
H       -1.00471903       1.91300381       1.45948314      -0.02012178       0.02654912      -0.01266348
H        0.55215294       1.62830997       2.25979743       0.03799560       0.02927264       0.07366259
H        0.30772864       3.11431187       1.33100863      -0.00591931      -0.06538020      -0.03412890
N        0.01514163       1.88133428      -1.16146232      -0.05695423       0.04826677      -0.07423335
H        0.04850728       2.89797203      -1.14150970       0.04803029      -0.03621627       0.03544487
H       -0.97260635       1.61380772      -1.17571035      -0.00016573       0.01453158       0.00339515
