14
Properties=species:S:1:pos:R:3:forces:R:3 Coordinates=T from=T ORCA-job=T run=T Energy:=T 195.0218391=T energy=-13110.192747093102 pbc="F F F"
C       -0.12305974      -0.12991518      -0.11165939       0.09469012       0.01375249       0.12561090
H        0.46251074       1.75659402      -0.84232136      -0.00905130       0.01023180       0.00591210
F       -1.27647539      -0.22077929      -1.00333401      -0.00950279       0.00109161      -0.05725916
F        3.06108454       0.74223251      -0.27345912      -0.04352378      -0.02730905      -0.03585540
C        0.10114702       1.37023468       0.12409289       0.04209410       0.04591742      -0.02793632
H       -0.87516495       1.82166799       0.33082921       0.02638135      -0.01007317       0.04713704
N        0.99775920      -0.73436581      -0.67300352       0.03303104       0.00315932       0.01250586
H        1.12000491      -1.70870803      -0.44097938      -0.11756908      -0.08661297       0.07384482
H        1.91164476      -0.17672610      -0.56422395       0.04752668       0.07551058      -0.10571483
C       -0.62895413      -0.79623126       1.12102029      -0.04814882      -0.02843796      -0.01910136
N       -1.02999283      -1.34933497       2.05151307       0.00767448      -0.03795311      -0.01294700
N        1.03365929       1.56681182       1.23209343      -0.01185955       0.07274579      -0.09501055
H        1.10807960       2.56916507       1.41130089      -0.02729586      -0.16500696      -0.02853349
H        1.95785265       1.26892524       0.84042983       0.00984013       0.14202389       0.12250948
