18
Properties=species:S:1:pos:R:3:forces:R:3 Coordinates=T from=T ORCA-job=T run=T Energy:=T 76.3736698=T energy=-10474.88300335777 pbc="F F F"
C        1.16239936      -0.02443839       0.24133463       0.01527418       0.02157715      -0.02272074
H        1.62174073       1.70557403      -0.89117928       0.00244203      -0.02203673       0.02191820
F       -1.63056573      -0.48195832      -1.15549899      -0.00054694       0.01301059       0.03215833
H        2.19475378      -0.10050550       0.60701905       0.00274663       0.00894548      -0.00153620
C        0.95001197       1.47805735      -0.04926160       0.01180815      -0.00727246       0.01473643
N        1.06143012      -0.76585008      -1.02848461       0.00823871       0.00890591      -0.02061832
H        0.04657059      -0.75658439      -1.27486854      -0.00985640      -0.00346155       0.00362174
H        1.27484476      -1.74223941      -0.82715668       0.01115269      -0.00806350      -0.00152484
C        0.20195498      -0.56955671       1.31760663       0.00866282       0.00921607      -0.01383486
H        0.49808791      -1.59198261       1.58843655      -0.00581937      -0.01470403      -0.00459362
H        0.20927930       0.02490660       2.24039187      -0.02952738       0.02202965       0.00866929
H       -0.80022603      -0.60363498       0.88375007      -0.01422111      -0.02735004      -0.00297518
N        1.46521231       2.28075183       1.09751163      -0.00181647      -0.00037741       0.01182506
H        0.71339456       2.25152315       1.78661599       0.00464984      -0.00169647       0.03581167
H        1.45926218       3.25408386       0.79266019      -0.00659113       0.00095931      -0.02631426
N       -0.44396454       1.79620184      -0.35002952       0.02265217      -0.02374515       0.00540818
H       -0.98115327       0.95390835      -0.67479578      -0.00861274       0.01298005      -0.03101588
H       -0.47904905       2.47672371      -1.10267080      -0.01957431       0.01525523      -0.01737183
