18
Properties=species:S:1:pos:R:3:forces:R:3 Coordinates=T from=T ORCA-job=T run=T Energy:=T 184.6042558=T energy=-13742.638769613452 pbc="F F F"
C        1.18369212      -0.03320330       0.03078641      -0.00614079      -0.02321171      -0.04800194
H        1.72597626       2.02950150       0.08370818      -0.03146711      -0.02541415      -0.01628463
F       -1.69888756      -0.28717816       0.07822417       0.03208470      -0.05844731       0.01709555
F        2.61126297      -0.04662893      -0.09664591       0.07245469      -0.03138413      -0.08495548
C        0.77610529       1.48473655       0.01457488       0.04536594      -0.02507049      -0.01589694
N        0.63349930      -0.68731479      -1.12654109       0.03903900      -0.02132239       0.04689059
H       -0.39477787      -0.71185881      -0.90742147      -0.07605477       0.14401619      -0.01578786
H        0.97766084      -1.64558245      -1.15648024      -0.02810873       0.00968343       0.13725680
C        0.84631173      -0.73815919       1.33656549      -0.00766392      -0.04358027      -0.04717731
H        1.10789046      -1.79687947       1.21555565       0.17235503       0.08472419       0.18368144
H        1.35826352      -0.30881054       2.21215608      -0.09437914      -0.14614012      -0.14608145
H       -0.24533162      -0.67631326       1.40052413      -0.00115575      -0.08408196       0.12176209
C       -0.17832906       1.92550842       1.15057127      -0.05885789      -0.07258850      -0.16342073
H       -1.05696136       1.27601597       1.01951940      -0.06270591       0.11199304       0.23748211
H        0.28340683       1.82065408       2.14542665      -0.08861373      -0.10817125      -0.29285576
H       -0.45669978       2.97590412       1.02572878       0.00506222       0.02118616      -0.04448249
C        0.18199534       1.86112714      -1.28257907       0.05732098       0.24390199       0.24507160
N       -0.28711178       2.32125984      -2.23043293       0.03776464       0.03143000      -0.09930952
