16
Properties=species:S:1:pos:R:3:forces:R:3 Coordinates=T from=T ORCA-job=T run=T Energy:=T 58.7506674=T energy=-11669.506659293753 pbc="F F F"
C        0.01083033      -0.03281402      -0.01721384      -0.03558356       0.01466950      -0.01646512
H        1.53250582       1.39159062      -0.20269935       0.01808330      -0.02046688       0.02485864
F       -1.41960423      -0.06062153      -0.15617215       0.00004666      -0.00742464       0.00459550
F        2.95608824      -0.16715570      -0.11541629       0.00855992       0.01383143      -0.01989913
C        0.47015056       1.42651089       0.06170189       0.00149977       0.00293021       0.00091172
H       -0.09534679       1.97681578      -0.69554654       0.00757212      -0.01682725      -0.01595813
N        0.59352087      -0.57567573      -1.21750551      -0.00535191       0.00031881      -0.02235604
H        0.35884542      -1.56717182      -1.25234875       0.01524916      -0.01206103      -0.00493855
H        1.63129489      -0.51259346      -1.01059361       0.00412958      -0.01084512       0.01194341
C        0.34404620      -0.83427212       1.23804870      -0.01051684       0.01521237      -0.01280748
H        1.43740659      -0.83114422       1.30321769      -0.00105287       0.00887564      -0.01008042
H       -0.12683709      -0.40836484       2.12910990       0.02418805       0.01136517       0.02665054
H       -0.00988850      -1.86477538       1.11503368      -0.01628578       0.00191142       0.00101815
N        0.22906564       2.05903787       1.38068269      -0.00737451       0.00194900       0.01492143
H        0.37494607       3.05973196       1.26989952      -0.00179440       0.00799554       0.00507759
H        0.97920605       1.75416018       1.99761418      -0.00356464      -0.00893462       0.01271523
