13
Properties=species:S:1:pos:R:3:forces:R:3 Coordinates=T from=T ORCA-job=T run=T Energy:=T 42.3354801=T energy=-86028.92077610834 pbc="F F F"
C        0.06476008      -0.00357777       0.05745944       0.04134627       0.00366902      -0.01130094
H        2.10717805       1.08641886      -0.12755091      -0.04336648       0.05286141       0.08484665
Br      -1.89632370      -0.57423466       0.14029376      -0.06196278      -0.04818511      -0.02616839
F        2.98075959       0.72673091      -0.22242063       0.02364485      -0.01987808      -0.01538427
C        0.28209196       1.43035948      -0.00172893       0.01230808      -0.00841267       0.01733615
H        0.43075872      -0.50748966      -0.82663642      -0.01933217      -0.02126757      -0.05232779
H        0.46220917      -0.42605814       0.97059531       0.02608984       0.00613578       0.00321512
N        0.02833431       2.14755682       1.21070411       0.00226570      -0.00166559      -0.01521527
O       -0.34414429       3.30571156       1.20354540       0.04022969       0.03966846      -0.04929148
O        0.20414141       1.50631269       2.24765497       0.02606219      -0.00901845       0.04289490
N        0.09067682       2.08120383      -1.25624903      -0.00952642      -0.01438037       0.02183706
O        0.25900278       3.28485173      -1.36462015      -0.01172683       0.00207253       0.02829586
O       -0.15243033       1.34598044      -2.21379489      -0.02202966       0.00095372      -0.04575814
