13
Properties=species:S:1:pos:R:3:forces:R:3 Coordinates=T from=T ORCA-job=T run=T Energy:=T 34.6781499=T energy=-34259.532471403494 pbc="F F F"
C        0.07796459      -0.09610903      -0.17669652       0.01500622       0.00811717      -0.00354523
H        1.60101510       1.31452406      -0.40583422      -0.01753338       0.00254908      -0.01013445
Cl      -1.67761808      -0.30707081       0.14969475       0.01372822      -0.00461541       0.01068022
Cl       3.20479574       0.37450550       1.41376569      -0.01099246      -0.01034858       0.01771796
C        0.53453315       1.33990425      -0.11330462      -0.00428688       0.01169493       0.00626590
H        0.26997362      -0.52162066      -1.15750783      -0.00563333       0.00296146      -0.00424895
H        0.63689539      -0.63582694       0.58671659      -0.01076839      -0.01845417      -0.00591813
N        0.32176890       1.93703360       1.16883886       0.00590886       0.00124065       0.01827561
H        0.48609416       2.93311170       1.08101906       0.00278026       0.01102811      -0.00197591
H        1.08524231       1.56826509       1.74190987       0.01640061      -0.01155577      -0.00196359
N       -0.12064194       2.16740981      -1.19659006       0.02332193      -0.01754371      -0.01379065
O       -0.32905448       3.33878882      -0.96044595      -0.03662362       0.02592045      -0.00956049
O       -0.32634105       1.63106034      -2.26556813       0.00397064      -0.00510012       0.00691609
