13
Properties=species:S:1:pos:R:3:forces:R:3 Coordinates=T from=T ORCA-job=T run=T Energy:=T 37.9956979=T energy=-14650.010623648792 pbc="F F F"
C        0.81799991       0.00632877       0.05529746      -0.00993501       0.00469207      -0.00812614
H        1.86399237       1.88151364      -0.04677246      -0.00603436       0.02343394       0.00010677
F       -1.66518100       0.11708895      -0.90190443      -0.00018506       0.01872760       0.01584413
F        1.88344244      -0.45892114       0.82511203       0.00008345       0.00660515      -0.01868522
C        0.82316405       1.52363428      -0.03208093      -0.00690615       0.02185564       0.02670219
H        0.93377612      -0.37499351      -0.95916431       0.00265823      -0.01488885      -0.00959894
H       -0.14369088      -0.34500081       0.42645837       0.01631954      -0.03136487       0.02044247
N        0.37894493       2.10978040       1.37650879       0.02113476       0.02698424       0.00668671
O       -0.50484672       2.94020855       1.38702568      -0.00977380       0.01183969      -0.00115717
O        1.00099725       1.75881801       2.35959586      -0.01731127      -0.02379859      -0.00735391
N        0.02439523       1.95646882      -1.08659220       0.00947346      -0.01209574      -0.00347128
H       -0.25065964       2.92096697      -0.95188135       0.02701654      -0.00842964      -0.01361895
H       -0.83645056       1.28355969      -1.11361079      -0.01974312      -0.00182053      -0.00393406
