13
Properties=species:S:1:pos:R:3:forces:R:3 Coordinates=T from=T ORCA-job=T run=T Energy:=T 34.7318345=T energy=-91777.91310215784 pbc="F F F"
C        0.10360636      -0.06882890      -0.19994051       0.00883072      -0.01103903      -0.00509388
H        1.61170422       1.34694755      -0.42743731       0.01581304       0.00950714       0.01233220
Br      -1.80131651      -0.32257889       0.16532068      -0.01303398       0.00440223      -0.00050790
Cl       3.16656682       0.33034441       1.49142469      -0.01037592      -0.00852505       0.00782083
C        0.54907151       1.36943925      -0.12336877       0.01474043      -0.02346960      -0.00061507
H        0.28218625      -0.49122380      -1.18372803      -0.00164771       0.02357599      -0.02017433
H        0.66070563      -0.61718757       0.55821395       0.00418666      -0.00789481      -0.00141547
N        0.34328088       1.94491152       1.16796699      -0.00164525      -0.00253891      -0.02171495
H        0.52337325       2.94037801       1.10867953       0.01203938       0.00065915      -0.01291419
H        1.09697071       1.54255401       1.73478541      -0.01105418       0.03006166       0.00296967
N       -0.10615108       2.20384032      -1.20370109       0.00214930      -0.02712118       0.02310448
O       -0.39190062       3.35150320      -0.93880570      -0.01169419       0.02141973       0.01686548
O       -0.23420080       1.69342453      -2.29737793      -0.01156927      -0.01758878      -0.00352153
