13
Properties=species:S:1:pos:R:3:forces:R:3 Coordinates=T from=T ORCA-job=T run=T Energy:=T 42.1835815=T energy=-77916.24421936658 pbc="F F F"
C        0.39638661      -0.00124418      -0.26587858      -0.00096305      -0.03929925      -0.00893505
H        1.63653180       1.59603056      -0.52660555       0.03146189       0.02171463      -0.01591611
Br      -1.48951093      -0.58432937      -0.03831937      -0.01141279       0.01805910       0.00872094
F        2.09762332       0.22648021       1.90505749      -0.00337215      -0.02081284      -0.00145053
C        0.57496636       1.49890500      -0.22805895       0.00332332      -0.00741244       0.00966067
H        0.67555713      -0.40406241      -1.23743377       0.01215839      -0.01858706      -0.01497539
H        0.97993694      -0.40235373       0.57958232       0.01314301       0.03646753       0.00635679
N        0.35206984       1.97297897       1.11968106      -0.03547973       0.01235136       0.03197615
H        0.72605379       2.91771255       1.17952929       0.00866062      -0.01227269      -0.00374163
H        1.00554092       1.35505875       1.68722277      -0.00846319       0.01549594      -0.01637425
N       -0.21385187       2.17328420      -1.25647883      -0.00805129       0.01308216       0.00283577
H        0.00323407       3.16524966      -1.20241282       0.00490692      -0.00580265       0.00208229
H       -1.18241626       2.10108359      -0.95047888       0.00149768      -0.01191616      -0.00180154
