13
Properties=species:S:1:pos:R:3:forces:R:3 Coordinates=T from=T ORCA-job=T run=T Energy:=T 42.0296083=T energy=-78483.76619201779 pbc="F F F"
C        0.29885843      -0.01624285      -0.18680130       0.02254422      -0.00407408       0.01233588
H        2.22696117       1.14319484       0.09831993      -0.02114548      -0.00560841       0.01613628
Br      -2.15343848      -1.33169790       0.19926649       0.00742288      -0.00756020       0.00979458
F        3.08932568       1.23925670       0.45911140      -0.01112985       0.00193579      -0.00939779
C        0.23368435       1.33806233      -0.11023083      -0.03004772      -0.00258676      -0.01396048
H        0.34000674      -0.53766385      -1.13301333      -0.01017979       0.01759216      -0.00698795
H        0.47191108      -0.60307692       0.70355608       0.02718794      -0.02369976       0.01267664
C        0.07747080       2.04932078       1.20947443       0.00587532      -0.01823562      -0.01625744
H       -0.96552805       1.98465371       1.53943632       0.00720416       0.03369545      -0.01285352
H        0.70009859       1.57435116       1.97120465      -0.00469428       0.01243736       0.00903002
H        0.36405834       3.10170187       1.14116928       0.00569880      -0.02888155       0.01543021
C        0.03585332       2.10652857      -1.29072845      -0.00837152       0.00880651       0.00683469
N       -0.10077325       2.76805830      -2.23152622       0.01053574       0.02109312      -0.02765110
