11
Properties=species:S:1:pos:R:3:forces:R:3 Coordinates=T from=T ORCA-job=T run=T Energy:=T 127.6195324=T energy=-147245.52552881246 pbc="F F F"
C        0.97918130       0.00053114       0.00061657       0.02220452      -0.01296145       0.00068439
H        1.66579967       2.04537064      -0.00900502       0.01555825      -0.04096051       0.00155018
Br      -2.07136997      -0.27834143       0.00207419       0.00475073      -0.02430553       0.00054436
Br       2.95895558      -0.32203940       0.01686881      -0.02688320       0.02901971       0.00100196
C        0.69968187       1.51958812      -0.00174470       0.00341196      -0.02028035      -0.00810046
H        0.60180897      -0.49164852      -0.88723888      -0.00607545       0.02038148       0.02079976
H        0.58718929      -0.49242341       0.88157280      -0.00873323       0.02093327      -0.02109126
C        0.04123531       1.98688164       1.21988758      -0.01023350       0.03275423       0.01444366
N       -0.30741741       2.44303153       2.21858114       0.00697482      -0.01210357      -0.01880370
C        0.02738104       1.98194764      -1.21812566       0.00788078       0.00442481       0.04350582
N       -0.32982422       2.43633231      -2.21410377      -0.00956330       0.01278725      -0.03225339
