11
Properties=species:S:1:pos:R:3:forces:R:3 Coordinates=T from=T ORCA-job=T run=T Energy:=T 16.3930626=T energy=-6389.752167985896 pbc="F F F"
C        1.13467646       0.00408596      -0.13063211      -0.01716944       0.00326243       0.00683103
H        1.88376632       2.03752248      -0.30928758       0.01706501       0.01758519      -0.00747149
F       -1.77813931       0.41337129       0.20441946       0.00357999      -0.03698051      -0.02061831
H        1.84274686      -0.32698375       0.64108564       0.00172104      -0.02801931      -0.00841454
C        0.93343829       1.50878170      -0.11754885      -0.01112139       0.02779339      -0.01627641
H        1.49111742      -0.32573762      -1.11445959       0.01046736      -0.00536589       0.01649787
H        0.13430709      -0.40796850       0.05538497      -0.01725513      -0.01727740       0.02064597
H        0.60145733       1.78223267       0.90061220       0.01953738      -0.00098803       0.02303734
N       -0.06113300       1.83945603      -1.12791018      -0.02378839       0.01930406      -0.03736843
H       -0.30660829       2.82007707      -1.00880061       0.01747027       0.03662210      -0.00639610
H       -0.90628562       1.30216440      -0.76511561      -0.00345324      -0.03143527       0.01913018
