13
Properties=species:S:1:pos:R:3:forces:R:3 Coordinates=T from=T ORCA-job=T run=T Energy:=T 36.6916465=T energy=-81972.53588956232 pbc="F F F"
C        0.32528187      -0.05872178      -0.19245394      -0.00601191       0.00914533       0.01203779
H        1.63616166       1.50467290      -0.57191767      -0.00261182      -0.00231400       0.00296408
Br      -1.55390044      -0.51018114       0.15693620       0.02256129       0.01632579       0.00102030
F        2.07752643       0.25343530       1.91416673       0.00068352      -0.00190061      -0.01709776
C        0.60283449       1.42608964      -0.18265323       0.01269934      -0.00780240       0.00481962
H        0.55580066      -0.50216052      -1.15747901       0.00169110      -0.01401180       0.03375642
H        0.93993001      -0.43047071       0.64699420       0.01193514       0.00004681      -0.01673005
N        0.39802495       1.98847366       1.09522251       0.00606704       0.00193267      -0.01209749
H        0.75507204       2.93722989       1.10321931      -0.01117018       0.00553835      -0.00982411
H        1.05810603       1.37526232       1.67998224      -0.02778268      -0.01962340       0.01283863
N       -0.18418009       2.14627855      -1.28277145       0.01528157       0.01946689      -0.00289202
O       -0.71835042       3.19780301      -1.01483155       0.00026660       0.00796735       0.00473175
O       -0.15804228       1.64705958      -2.39307320      -0.00787372      -0.01080497      -0.00458514
