13
Properties=species:S:1:pos:R:3:forces:R:3 Coordinates=T from=T ORCA-job=T run=T Energy:=T 38.8507178=T energy=-7892.645886281534 pbc="F F F"
C        0.10931279       0.09404192      -0.16254643       0.00202299       0.00540220      -0.02011843
H        1.42480372       1.62098299      -0.81365595      -0.00783011      -0.01506291      -0.01475682
F       -0.18587912      -0.33684565      -1.47195466       0.00735807       0.00591412       0.03931884
H        2.72617808       0.16571582       1.66765422       0.00990003       0.00250013       0.02020403
C        0.51586405       1.55276107      -0.18698132       0.00421172      -0.00880897       0.00077654
H        0.93109754      -0.50758263       0.24437996      -0.01767850       0.00232878      -0.01635190
H       -0.80035890      -0.02960249       0.43796879       0.02239949      -0.00931383      -0.01663052
N        0.72859294       1.94205500       1.18304795      -0.02375871       0.00683973       0.01585154
H        1.13124249       2.87541063       1.16606952       0.00488796       0.02357400       0.02590296
H        1.49436714       1.30984779       1.54722691      -0.00353886      -0.01241252      -0.02780801
N       -0.48032548       2.43713403      -0.79588108       0.01258617      -0.00396759      -0.00750938
H       -1.30040786       2.40366168      -0.19508358       0.00806143       0.00399588       0.02497054
H       -0.75405416       2.03444667      -1.68748779      -0.00406070      -0.01999441      -0.01334238
