10
Properties=species:S:1:pos:R:3:forces:R:3 Coordinates=T from=T ORCA-job=T run=T Energy:=T 42.2635182=T energy=-10092.02454057253 pbc="F F F"
C        1.12588600      -0.04334973      -0.23735388      -0.02573585       0.00800211      -0.01014287
H        1.14571136       1.94671346       0.59571671      -0.00321390      -0.00454803       0.00135810
F       -1.47875598       0.65010305       1.26132875       0.00210451       0.01034590      -0.01131109
F        2.48698886      -0.20223535      -0.67333872       0.01638784       0.00975499       0.00987460
C        0.62864419       1.33861457      -0.15170173       0.01390073       0.00459924      -0.00241432
H        0.53242587      -0.63116638      -0.94435788       0.00004759      -0.02759173      -0.00379014
H        1.09177634      -0.52724736       0.74444889      -0.01403009       0.02024638      -0.01527167
H       -0.74295335       0.99708635       0.65290898       0.01355340      -0.01586746      -0.00063165
C        0.41564815       2.03567779      -1.36276665       0.00289891       0.01185217       0.03621925
N        0.18580746       2.62253749      -2.34326599      -0.00166333      -0.01697589      -0.00674522
