15
Properties=species:S:1:pos:R:3:forces:R:3 Coordinates=T from=T ORCA-job=T run=T Energy:=T 16.8445757=T energy=-19525.177322346775 pbc="F F F"
C        0.36314268      -0.05235222      -0.17346240       0.01118641      -0.03608743       0.00129610
H        1.62382464       1.52993642      -0.34443988      -0.03077133       0.00921192      -0.00511520
Cl      -1.39540502      -0.56190139       0.06581537       0.01516443      -0.01688032      -0.00448523
F        2.32381034       0.04657166       1.63508199      -0.00394585       0.01185610       0.01234865
C        0.53640334       1.45202178      -0.20018198      -0.01080882      -0.03094555       0.02440809
H        0.63554967      -0.51190595      -1.12736223       0.02627477       0.00649299       0.01850542
H        0.99861588      -0.41049281       0.67297904      -0.01423297       0.00431008      -0.02366047
C        0.27103071       2.03011431       1.18342212       0.01329062       0.00871984       0.03548043
H       -0.76037255       1.84162796       1.50552526       0.00608683       0.03398464      -0.00775951
H        0.98145462       1.50846201       1.84140103      -0.00247144      -0.04575804       0.00648191
H        0.44639143       3.11311331       1.21029520       0.01273279       0.01964252      -0.02308254
C       -0.20686355       2.14744270      -1.32948414      -0.00253253      -0.00020224      -0.00604841
H        0.05918599       1.72218066      -2.30494401      -0.00143839       0.01255100      -0.02501452
H       -1.29045572       2.04179672      -1.21098666      -0.00530570       0.00673157       0.00981709
H        0.02304731       3.21877473      -1.35635609       0.00253929       0.01528203      -0.00126002
