16
Properties=species:S:1:pos:R:3:forces:R:3 Coordinates=T from=T ORCA-job=T run=T Energy:=T 69.0324410=T energy=-22822.166375711684 pbc="F F F"
C        0.32383199       0.00713136      -0.00496687      -0.02134461       0.02438131      -0.00402294
H        1.63923490       1.60584210      -0.07158881      -0.01152030       0.00880729       0.00943340
Cl      -1.38991411      -0.45316763       0.12706785       0.01132852       0.00617616      -0.00268194
H        2.08489021      -0.30714282       0.88757737      -0.00008034      -0.00673766       0.00301471
C        0.53018849       1.51659698      -0.05937619       0.00401262       0.01000135      -0.03292845
H        0.70504489      -0.47671809      -0.90657628      -0.01938993      -0.00883260       0.03308853
N        1.12746198      -0.65318628       1.14058538       0.00428855       0.00897978      -0.01385491
O        0.80464307      -0.10308982       2.32835785      -0.00248342      -0.00318114       0.00410165
O        1.09497349      -1.95941291       1.02713629       0.01602183      -0.01397210      -0.01199475
N       -0.07083461       2.17132892       1.08989786       0.02148083      -0.00608769      -0.02345886
H        0.44535307       3.02734999       1.26672423      -0.01169820      -0.00527032       0.02720234
H        0.12966812       1.51608256       1.86862497      -0.00657705       0.00695704       0.02676361
C        0.00966563       2.12825318      -1.35262871      -0.00226631       0.00028160      -0.00421606
H        0.44628545       1.65212011      -2.23944341      -0.01367534       0.00933987       0.01309249
H       -1.07770093       2.02765011      -1.38896158       0.01413112      -0.01663891      -0.01742302
H        0.24556182       3.19912341      -1.38814153       0.00937531      -0.02395614       0.00282778
