12
Properties=species:S:1:pos:R:3:forces:R:3 Coordinates=T from=T ORCA-job=T run=T Energy:=T 200.9250166=T energy=-25458.03773658932 pbc="F F F"
C        0.76455279      -0.09332877       0.27128050       0.21122680       0.17050195       0.15773864
H        1.57044369       1.85719619       0.16473771      -0.00189339       0.10896733       0.15931818
Cl      -1.05711428       0.35293761      -2.39072932      -0.03009834       0.04464841       0.06540221
F        1.76176043      -0.37270259      -0.59977843       0.05082962      -0.18287625      -0.10501043
C        0.58573447       1.40124727       0.28656355       0.01470213       0.08194896      -0.01654718
H       -0.13336354      -0.62067782      -0.00366158      -0.38021121      -0.19514987      -0.33107249
H        0.02003333       1.54431455      -0.65415426      -0.08967109       0.17314599      -0.05261798
N        1.21927913      -0.72055925       1.57175756       0.07602100      -0.12291756       0.05495751
O        1.59423249      -0.00375847       2.47226751       0.07331588      -0.04108971       0.07270086
O        1.19512199      -1.93335516       1.57861686       0.05468434       0.13589239       0.18838392
C       -0.12881561       1.99451750       1.40307784      -0.24720127       0.06963910       0.10858318
N       -0.72494689       2.51593985       2.24568377       0.26318361      -0.22410807      -0.30697012
