16
Properties=species:S:1:pos:R:3:forces:R:3 Coordinates=T from=T ORCA-job=T run=T Energy:=T 56.2098379=T energy=-35327.84552051307 pbc="F F F"
C        0.90733988      -0.00741579       0.09498967       0.00744510      -0.01978971       0.01940169
H        1.71962450       1.91202167       0.49447829      -0.01527610       0.01011669      -0.02182141
Cl      -2.37439215       0.14002512      -1.19039466       0.03452345       0.01144714       0.00808711
Cl       2.24029342      -0.49544071      -0.98886882      -0.01901360       0.00749456       0.02492080
C        0.74867886       1.50453003       0.18942015      -0.00144411      -0.02188141      -0.02125634
H       -0.00952858      -0.49146508      -0.25215633      -0.00752533       0.02582032      -0.02124871
N        1.24913057      -0.62222569       1.43786068      -0.00851024      -0.00353265       0.03560831
O        1.99848606      -0.00561197       2.16704888       0.03544829      -0.00340084       0.00730659
O        0.76394962      -1.70138567       1.68503573      -0.00783073       0.01776879      -0.00692689
C       -0.31249383       1.86353894       1.23722421       0.01079603      -0.01599230      -0.00818564
H       -1.26641539       1.39348478       0.97963099       0.00497240      -0.00970497      -0.00717288
H       -0.01393051       1.58443704       2.25221244      -0.01501703      -0.00894555       0.00381767
H       -0.46264141       2.94840220       1.22303533       0.02519377      -0.00998426       0.00635284
N        0.43837805       1.96790397      -1.15179175      -0.01742565       0.02295824       0.00300149
H        0.36504834       2.97802710      -1.13405257      -0.01369446       0.02028376       0.01152108
H       -0.48646802       1.60420543      -1.40394813       0.00297150      -0.02092115      -0.02895125
