15
Properties=species:S:1:pos:R:3:forces:R:3 Coordinates=T from=T ORCA-job=T run=T Energy:=T 106.4549833=T energy=-36330.630527123576 pbc="F F F"
C        0.82298637       0.00702528       0.06132280       0.00338915      -0.00861980      -0.02086064
H        1.73416565       1.84392310       0.64303347      -0.00447309       0.01683799      -0.00420662
Cl      -2.32098852      -0.81096218       0.02877082      -0.00457393       0.01239976      -0.02210851
Cl       1.93710475      -0.54520215      -1.21301054      -0.00131518      -0.00655951       0.00228551
C        0.78636285       1.53038461       0.19078109       0.00854478      -0.00923514      -0.00416044
H       -0.18561738      -0.43093185      -0.11204858      -0.00719696       0.02093507      -0.01059326
N        1.32079353      -0.61785473       1.35382754      -0.01131917       0.00965907       0.02214179
O        1.74005931       0.12242700       2.22471252       0.01910762      -0.00619518       0.01930861
O        1.25428889      -1.81655383       1.42839877       0.02096069      -0.00812513      -0.01634905
C       -0.38619459       1.98370335       1.07214725       0.00762701      -0.00035975      -0.00773257
H       -1.32255188       1.56081623       0.70034663      -0.00360358      -0.00642745       0.01505945
H       -0.22794278       1.63432759       2.09230390      -0.01625532       0.00706890       0.00063108
H       -0.44404559       3.07432403       1.08017102       0.00535005       0.01253239       0.00800808
C        0.71722461       2.18794595      -1.11189958       0.00264478      -0.01408317       0.01175771
N        0.68537953       2.79052976      -2.09357592      -0.02005460      -0.01227610      -0.00820869
