13
Properties=species:S:1:pos:R:3:forces:R:3 Coordinates=T from=T ORCA-job=T run=T Energy:=T 36.3485957=T energy=-91777.18292632923 pbc="F F F"
C        0.22585113      -0.10122806       0.06837661      -0.19621216       0.08758959      -0.17010372
H        1.50675578       1.49545445       0.20798370       0.14373872       0.12415544      -0.10932557
Br      -1.62292468      -0.56756476      -0.37051122      -0.11571988      -0.13797716      -0.00404966
Cl       3.50193275       0.33754539      -0.74246493      -0.03390407       0.05038384      -0.03529728
C        0.42577989       1.39845531       0.07284567       0.05992727       0.07707987       0.14521851
H        0.88073175      -0.59508409      -0.64787379      -0.00066695      -0.03667685       0.09121754
H       -0.06145637       1.82494470       0.94755573      -0.15957773      -0.00783892       0.12021989
N        0.48634537      -0.71878297       1.42048750       0.22120150       0.10452543       0.19211834
O        0.20421787      -0.05577874       2.40563593       0.07751377      -0.28920585      -0.31538920
O        0.95965223      -1.83128446       1.42901064      -0.18934759       0.18352300       0.07219675
N       -0.01330594       1.99587387      -1.17432844      -0.01438582       0.92495113      -0.24400829
H        0.76352816       2.51351832      -1.62087706      -0.81174351      -0.50860994       0.48959088
H       -0.82147536       2.62452458      -1.01655889       1.00871389      -0.57381569      -0.23888673
