12
Properties=species:S:1:pos:R:3:forces:R:3 Coordinates=T from=T ORCA-job=T run=T Energy:=T 40.6067955=T energy=-15652.442603596674 pbc="F F F"
C        0.83656665      -0.14528161       0.24169221      -0.01402315      -0.08709037      -0.01726450
H        1.82517211       1.78822351       0.60935365      -0.01512651       0.00068628       0.02810558
F       -1.25653324       0.69221413      -0.87579648      -0.06346864      -0.07280134      -0.07814653
F        1.78771826      -0.55809359      -0.70755921      -0.05467679      -0.01766290       0.12980767
C        0.88089604       1.36800175       0.24446025       0.09956645      -0.08197428      -0.06314814
H       -0.20658375      -0.30665128      -0.17054375      -0.00887441       0.05446336       0.06592335
H        0.64177943       1.66365418      -0.77186471      -0.00075183       0.03509277       0.04474640
C        1.17087087      -0.79891425       1.50368628       0.10949120       0.11410070      -0.25668254
N        1.48716495      -1.36777585       2.45618553      -0.04001996      -0.06542788       0.08576311
N       -0.18974750       1.96236006       1.08260496       0.17776505       0.05119506       0.02196551
O       -0.43467602       3.12926649       0.87837133      -0.10036767       0.25201517      -0.10053231
O       -0.64591115       1.30990477       1.99371286      -0.08395968      -0.18679588       0.11853104
