14
Properties=species:S:1:pos:R:3:forces:R:3 Coordinates=T from=T ORCA-job=T run=T Energy:=T 141.2193377=T energy=-33277.70152742094 pbc="F F F"
C        0.74249741      -0.04126369       0.17886177       0.02471148       0.00395293      -0.00855346
H        1.81474164       1.81979073       0.27569703       0.00663419      -0.01493325       0.02071962
Cl      -2.22803263      -0.49018991      -1.06878469       0.00746225      -0.02567390       0.00574812
Cl       1.92377310      -0.67668355      -1.03188887      -0.01690142       0.00950924      -0.02308992
C        0.77283473       1.50097970       0.14325040      -0.00938894       0.03036108      -0.00716979
H       -0.26543947      -0.39946573      -0.14444731      -0.00028142       0.01544780      -0.00734119
C        1.11780527      -0.57867516       1.47236608      -0.01952824      -0.01574261      -0.00214976
N        1.42006060      -1.00489933       2.50006937       0.00166925       0.00248659       0.01800366
C        0.03612046       2.05391760       1.27951145       0.01180426      -0.00237409      -0.04817126
N       -0.50516231       2.54928050       2.16743274      -0.01958915       0.02256686       0.03609016
C        0.22369361       2.05845587      -1.17327639       0.00190792       0.00546563      -0.01291337
H        0.87829783       1.77030216      -1.99803564      -0.00365779      -0.01620576       0.01730891
H       -0.77442599       1.65288869      -1.36435590       0.01650962       0.01769101       0.02325153
H        0.18549284       3.14990910      -1.12670796      -0.00882758      -0.01817765      -0.00022943
