13
Properties=species:S:1:pos:R:3:forces:R:3 Coordinates=T from=T ORCA-job=T run=T Energy:=T 179.5080437=T energy=-95287.5968140783 pbc="F F F"
C        0.90641573      -0.08109875       0.08192079       0.01041792      -0.00729176      -0.00926576
H        1.74684305       1.89552071       0.20418353      -0.02489889       0.01214327       0.02291409
Br      -2.26492631      -0.08502988      -0.40711989      -0.02055206      -0.02463112      -0.00908919
Cl       2.43590791      -0.51852653      -0.78481012       0.01061100      -0.01796056      -0.00202861
C        0.75081197       1.44415260       0.11772507      -0.00733560       0.00790642      -0.01984934
H        0.02636343      -0.49468555      -0.44919856       0.01423397      -0.00962036       0.00388903
C        0.99349849      -0.64959770       1.41423618      -0.00707247      -0.00631763       0.02324991
N        1.11044585      -1.12332171       2.45790466      -0.00635382       0.01270009      -0.01961686
C       -0.05829458       1.96607588       1.20713434       0.01599347       0.01802721      -0.03022343
N       -0.54872429       2.45364159       2.12729700       0.00705589      -0.00006583       0.01906586
N        0.24997722       1.99368486      -1.22537035       0.02125135       0.01143434      -0.00068163
O       -0.20887068       3.10769837      -1.19017905      -0.00306927       0.01367567       0.00411365
O        0.47773534       1.33286491      -2.20312992      -0.01661786      -0.00238626       0.01282593
