14
Properties=species:S:1:pos:R:3:forces:R:3 Coordinates=T from=T ORCA-job=T run=T Energy:=T 60.8979366=T energy=-10968.130219281209 pbc="F F F"
C        0.33502555      -0.06338054      -0.02781131       0.00881912      -0.02334271       0.00543391
H        1.59724535       1.61311668      -0.04101715      -0.02051308       0.03113365      -0.01013790
F       -0.99446892      -0.36410175       0.22143203      -0.00238138       0.00512451      -0.00556833
H        2.36688686      -0.48080063       0.55533660       0.00915332      -0.02826964       0.00338877
C        0.50400949       1.46404308      -0.04166431      -0.00386559      -0.02701651      -0.00090339
H        0.58102634      -0.47306595      -1.01950611      -0.01541607       0.01998069      -0.00775394
C        1.30698583      -0.65105168       1.03585233       0.01764276       0.02057272      -0.00179274
N        1.04310566      -1.12166817       2.13571117      -0.01814835       0.01536687      -0.00155879
C       -0.10584589       2.08400041       1.21749914       0.00102892       0.00001114      -0.00243323
H       -1.19503699       2.04497075       1.16960378      -0.00170380      -0.00494086       0.00918713
H        0.21787214       1.49235494       2.07685577      -0.00131333      -0.00586027      -0.00311653
H        0.20404640       3.12503526       1.34257654      -0.00004755       0.01164793      -0.00891707
C       -0.01775258       2.09065586      -1.24989684       0.01676493       0.00233452      -0.00004379
N       -0.43688693       2.58279777      -2.20870004       0.00614998      -0.00084199       0.01916930
