12
Properties=species:S:1:pos:R:3:forces:R:3 Coordinates=T from=T ORCA-job=T run=T Energy:=T 52.8158021=T energy=-21402.135453139756 pbc="F F F"
C        0.13195799      -0.11242463       0.17259162       0.00145916      -0.01670056      -0.00087949
H        1.20693953       1.63416624       0.67354811      -0.00348696      -0.00006374       0.00149918
F       -1.14778649      -0.52662920      -0.16974114       0.00250130      -0.01778236      -0.01922277
Cl       3.02854476       0.65570635      -1.61746963      -0.03214942       0.00341603      -0.01193758
C        0.22595160       1.40199959       0.23092057      -0.00532479      -0.00410461      -0.00177219
H        0.84147406      -0.48119023      -0.57752921       0.03066229       0.01969641      -0.01097389
H       -0.55712457       1.76334446       0.90867116      -0.00510022       0.01052341      -0.00153765
C        0.44633324      -0.70921828       1.47526037       0.01372843      -0.00091890       0.02348858
N        0.66417673      -1.16828837       2.50916552       0.00027934      -0.01627820       0.02988826
N        0.03142588       1.94898287      -1.09737231       0.01096662       0.01205203       0.00141404
H        0.88439957       1.72774915      -1.62024392       0.00844222      -0.02199079       0.00527847
H        0.00493599       2.95951348      -1.02125873       0.00329868       0.01470434      -0.01181632
