12
Properties=species:S:1:pos:R:3:forces:R:3 Coordinates=T from=T ORCA-job=T run=T Energy:=T 30.5647475=T energy=-31206.204453911778 pbc="F F F"
C        0.95682641      -0.02860341       0.11186509      -0.02991553       0.03407936       0.00963391
H        1.51531034       1.98910630       0.61162410       0.01528671       0.00404939      -0.00270744
Cl      -2.29569103       0.09055486      -0.83577219       0.01309180       0.00480476      -0.02121281
Cl       2.45077507      -0.39820425      -0.84229394      -0.00653275       0.00743444      -0.01684989
C        0.65966328       1.46732281       0.16932637       0.01514384       0.00773658      -0.00454294
H        0.10939072      -0.51097970      -0.39305121       0.00333633      -0.03758766       0.00783887
H       -0.19772918       1.55420290       0.85689237       0.01623907       0.00096192      -0.01734262
C        1.13163318      -0.58875993       1.44152966       0.01028316       0.03629080       0.02197036
N        1.28416017      -0.99654996       2.50907496      -0.01104758      -0.01775799      -0.00509378
N        0.39571139       1.96705480      -1.16221061      -0.00776154      -0.01385623       0.02220961
H        0.26940257       2.97136136      -1.11284096      -0.00824219      -0.00884233       0.01639701
H       -0.50741626       1.57206764      -1.43963143      -0.00743774      -0.00134129      -0.00278865
