14
Properties=species:S:1:pos:R:3:forces:R:3 Coordinates=T from=T ORCA-job=T run=T Energy:=T 96.2206131=T energy=-13668.544686013065 pbc="F F F"
C        0.23322498      -0.08776814       0.20134883      -0.03070589       0.02432461       0.05097449
H        1.60120170       1.46609547       0.20619523       0.05040660      -0.01680225       0.02914665
F       -1.10542937      -0.34616945      -0.10875842      -0.03291305      -0.00648372      -0.03490967
F        2.13495583      -0.03294057      -1.52723716      -0.05464841      -0.01652922      -0.05792402
C        0.50865184       1.41689394       0.17327679       0.01995600       0.02643102      -0.03739208
H        0.97092487      -0.42412986      -0.62109659       0.02134123      -0.01848834       0.00957900
C        0.51155157      -0.70309437       1.48874072       0.01880547       0.02705981       0.05314965
N        0.74304853      -1.20788858       2.50121633       0.03116224      -0.03244315      -0.05025528
C       -0.06367763       2.16931724       1.28219623      -0.03208094      -0.00875362       0.01741400
N       -0.50968913       2.78685924       2.14887302      -0.03234354       0.02855867       0.02451401
C        0.09810578       1.98101551      -1.18749322       0.03913850       0.03772695      -0.03265719
H        0.66809268       1.38960373      -1.91036464      -0.00089136      -0.07880938       0.02546785
H       -0.97897340       1.90319546      -1.34690474       0.00740987      -0.04250653      -0.01607649
H        0.39274047       3.02880178      -1.26962649      -0.01494146       0.08391515       0.01798908
