12
Properties=species:S:1:pos:R:3:forces:R:3 Coordinates=T from=T ORCA-job=T run=T Energy:=T 132.8605877=T energy=-92234.75090831149 pbc="F F F"
C        0.83989545      -0.06823498       0.15583208       0.01648396       0.03057003       0.00117360
H        1.71634240       1.87615472       0.44952084       0.00733861      -0.00378800      -0.01453579
Br      -2.23617359      -0.38818400      -0.86553693       0.00002206      -0.01225864       0.00463085
Cl       2.08599426      -0.55762060      -1.03820968       0.01070870      -0.00625376      -0.01610067
C        0.73288036       1.47401522       0.17040637      -0.00094308      -0.01917194       0.01875367
H       -0.15278193      -0.46499057      -0.18707806      -0.02766721      -0.03434397      -0.00441497
C        1.21567790      -0.58185125       1.45621882      -0.01127632       0.00242636      -0.01301994
N        1.51823280      -1.00328427       2.48583544      -0.00671767       0.00639835       0.01793389
C       -0.20467611       1.94777984       1.19062122      -0.03403656       0.00106083       0.06779979
N       -0.83951819       2.36832360       2.05383430       0.03195410       0.00261598      -0.05532693
C        0.42553108       2.04359573      -1.14436321       0.04430580       0.01689253       0.05964295
N        0.32257091       2.60420624      -2.14336878      -0.02388784       0.01681449      -0.05121458
