13
Properties=species:S:1:pos:R:3:forces:R:3 Coordinates=T from=T ORCA-job=T run=T Energy:=T 72.5237743=T energy=-27965.412215404816 pbc="F F F"
C       -0.01055713      -0.07496794       0.09137666       0.01356613       0.00381841       0.01243872
H        2.13268844       1.01106722      -0.00691246       0.00309418       0.02751743      -0.00325822
Cl      -1.84975846      -0.56415200       0.01101080      -0.00621056       0.00508549      -0.02695493
F        2.96921956       0.61733083      -0.20412925      -0.00655347       0.00973347       0.00791237
C        0.24992406       1.35977338       0.08781297       0.03300148      -0.00362152       0.00445531
H        0.38037592      -0.51167611      -0.82592371      -0.04489784      -0.00974986      -0.00305070
C        0.50710658      -0.77016176       1.25465556      -0.00614512       0.00677394       0.04351805
N        0.91129923      -1.33860476       2.17147348       0.02194661      -0.00578613      -0.01189863
C        0.02610378       2.16086347       1.22693443      -0.03785913       0.01679916      -0.01765688
N       -0.13389830       2.78379183       2.19072973       0.02250369      -0.02402463      -0.01312499
N        0.13149411       2.00090000      -1.17609809      -0.00020428       0.00337443       0.00711878
O        0.10764912       3.22462172      -1.20901777       0.01349290      -0.02431662       0.02120571
O        0.09750636       1.29279881      -2.18092145       0.01484657      -0.00410479      -0.00255992
