15
Properties=species:S:1:pos:R:3:forces:R:3 Coordinates=T from=T ORCA-job=T run=T Energy:=T 35.4148755=T energy=-14021.283942145685 pbc="F F F"
C        0.08997940      -0.13133171       0.21367292       0.04058461       0.14513724       0.37266739
H        2.10689781       1.29086436      -0.51210728       0.53312868      -0.16616904      -0.05020572
F       -1.12657022      -0.57053355      -0.41325406       0.01040828      -0.08101950      -0.04577499
H        2.79414829       1.10676209      -0.83941942      -0.09495311       0.09376528      -0.00032074
C        0.28107061       1.31515081       0.09342941      -0.10929596       0.07468657       0.30415101
H        0.87890495      -0.69629023      -0.32297278      -0.25225440       0.10297420      -0.14152521
C        0.03817318      -0.69049114       1.56842498       0.05337718       0.36538839      -0.57979822
N       -0.07104392      -1.35239132       2.49813219      -0.00282367      -0.66593816       0.72526228
N        0.28628421       2.13077501       1.20991011       0.04874899      -0.92662143      -0.23009796
O        0.45346142       3.33979438       1.08128086      -0.03025427       1.36617143      -0.55646909
O        0.20648207       1.64461774       2.35076427      -0.01336389      -0.51169741       0.35572917
C       -0.10420697       1.89985320      -1.22186295      -0.21883195       0.01496436       0.28980395
H        0.39279749       1.43893527      -2.07747883       0.33776102      -0.10015295      -0.08252274
H       -1.16538167       1.69402452      -1.35568731      -0.34060528       0.27676204      -0.33434350
H        0.07533815       2.97237293      -1.22776599       0.01974488       0.02742172      -0.01295793
