12
Properties=species:S:1:pos:R:3:forces:R:3 Coordinates=T from=T ORCA-job=T run=T Energy:=T 122.7939146=T energy=-78920.66812724297 pbc="F F F"
C        1.02281769      -0.04377113       0.04821123      -0.00493885       0.01425637      -0.00689148
H        1.57348496       1.95526701       0.55548990       0.00060898      -0.00467595       0.00601834
Br      -2.57325291       0.24238306      -0.76779802       0.00520024      -0.01874264       0.00042280
F        2.15413590      -0.25404616      -0.72607734      -0.00253235      -0.01303385      -0.01081702
C        0.69287814       1.43525185       0.15912035       0.00459976       0.01222306      -0.01711681
H        0.16935639      -0.55617629      -0.41248220      -0.01280287       0.00458853      -0.04059225
H       -0.12258613       1.51402582       0.89617323       0.01085977       0.00426052      -0.00927344
C        1.28313809      -0.63765592       1.36417578      -0.01467244      -0.00300602       0.01164153
N        1.51234354      -1.10400424       2.39222835       0.01665236       0.00185230       0.04576803
N        0.35923546       1.95025507      -1.15442720      -0.00241952       0.00856655      -0.00859759
H        0.22503126       2.95233699      -1.08109201       0.01831377       0.01867196       0.02387312
H       -0.56300118       1.56791042      -1.38816794       0.00465107      -0.03100739       0.01613356
