13
Properties=species:S:1:pos:R:3:forces:R:3 Coordinates=T from=T ORCA-job=T run=T Energy:=T 82.7407838=T energy=-78726.1180642363 pbc="F F F"
C        0.54407304      -0.06154082       0.02045589       1.89547007       0.25552095       0.25369690
H        1.70646501       1.66107579       0.06662255       0.06369401       0.31181769      -0.01826289
Br      -1.76438536      -0.22425252      -0.20835573      -0.72735674      -0.27541542      -0.06593559
H        2.44798022      -0.14810223       0.30565947      -0.74578750      -0.16404442      -0.29747999
C        0.63576213       1.48127587       0.05527939      -0.00136429      -0.10190995      -0.16194637
H        0.82771957      -0.42627087      -0.96699740      -0.27166537      -0.21807730       0.44137625
C        0.76185687      -0.87535155       1.18592691      -0.26459863       0.21889246      -0.01351572
N        0.74834291      -1.50324568       2.16554080       0.01661247       0.06132147      -0.29978012
C        0.11998438       2.13694456       1.26222462      -0.51171377       0.72522119       1.21707847
N       -0.18958884       2.81666047       2.15751102       0.32861411      -0.83147506      -1.06388447
N        0.09334250       2.03124289      -1.17958258       0.07967987       0.10367022      -0.15673366
H        0.06353109       3.04347884      -1.13066290       0.15379371      -0.03801772       0.07938623
H       -0.86538622       1.71149712      -1.28220205      -0.01645854      -0.04840707       0.08953165
