14
Properties=species:S:1:pos:R:3:forces:R:3 Coordinates=T from=T ORCA-job=T run=T Energy:=T 164.4552620=T energy=-26962.97590399667 pbc="F F F"
C        0.87298172      -0.00573455       0.14570984      -0.00870687       0.06271483      -0.03455450
H        1.86051855       1.87253754       0.31689569       0.06385403       0.06844045       0.02650050
Cl      -2.04691955      -0.07284654      -1.57480962      -0.04242825      -0.01284821       0.02514507
F        1.98429617      -0.35252296      -0.61225919      -0.02265935       0.00070272      -0.02472960
C        0.83480528       1.53091153       0.14703211       0.05979435       0.04523569      -0.03385396
H       -0.03055893      -0.37750257      -0.36625835      -0.05220552       0.00209838      -0.01373940
C        1.01436700      -0.68590599       1.43129806      -0.06237477      -0.01871199      -0.01341658
N        1.12538956      -1.34982011       2.36518900       0.04523333      -0.04247276       0.04857619
N        0.14755955       2.13115154       1.43630908      -0.02747485      -0.01950203      -0.00144757
O       -0.63710438       3.03545758       1.27361359       0.02510105      -0.08937459      -0.04390561
O        0.55339162       1.73149008       2.50508219      -0.00897343       0.04117730       0.11687865
N        0.30041213       1.99716256      -1.04559353       0.06714710      -0.01346072      -0.04244412
H        0.21367237       3.00190871      -1.07033654      -0.02133085      -0.00870599       0.00555098
H       -0.58446675       1.53244097      -1.29370496       0.00682878      -0.01118539      -0.02565318
