16
Properties=species:S:1:pos:R:3:forces:R:3 Coordinates=T from=T ORCA-job=T run=T Energy:=T 18.5874970=T energy=-12229.202515421293 pbc="F F F"
C        0.32091823      -0.05266453       0.23356660       0.00589037      -0.01078262      -0.01545327
H        1.62382322       1.56492508       0.29225412      -0.00476229       0.00867453       0.01822747
F       -1.04720910      -0.34786926       0.04773568      -0.01546870       0.01673912       0.00022245
F        1.88280174      -0.29021630      -1.82217143      -0.02073652       0.00528987      -0.02125339
C        0.53603350       1.45767562       0.19630464       0.00158660      -0.00595650      -0.00585418
H        0.96447516      -0.43415901      -0.66266876       0.00145782       0.00066815       0.01343134
C        0.71958813      -0.64754557       1.49776625       0.02477349       0.00637226       0.00023946
N        1.07321084      -1.13187606       2.48674081      -0.00293686      -0.00842732       0.01568521
C       -0.16994010       2.20582993       1.31979503      -0.00362685      -0.00425356      -0.01022369
H       -1.25413498       2.07255236       1.24484894      -0.00067450      -0.00840218       0.00838020
H        0.14493225       1.84773713       2.30630079      -0.01430180       0.00620875      -0.01084809
H        0.03784397       3.28091425       1.27020819      -0.00988893      -0.00197725      -0.01042878
C        0.16199854       1.95818040      -1.19535657       0.00963660       0.00711251       0.00212181
H        0.73629361       1.34732921      -1.90495548      -0.01390639      -0.00671519       0.01704444
H       -0.91144807       1.83494646      -1.37936467       0.01930147       0.00599755       0.00985821
H        0.40904120       3.02086971      -1.30680350       0.00199183       0.00624466      -0.00659109
