15
Properties=species:S:1:pos:R:3:forces:R:3 Coordinates=T from=T ORCA-job=T run=T Energy:=T 55.0643680=T energy=-89793.20780340926 pbc="F F F"
C        0.99904541       0.01570877       0.13291037      -0.10528838       0.06246317      -0.08832667
H        1.79039035       2.01191458       0.23252430       0.04192945      -0.09941659       0.06104930
Cl      -2.36963139       0.09449447      -0.87377251      -0.01569687      -0.10017214       0.00838224
Br       2.68357875      -0.48343351      -0.77686318      -0.04597993      -0.02777839      -0.02093359
C        0.80260245       1.54363448       0.12980069       0.00349961       0.20047998      -0.08832753
H        0.19781591      -0.44768387      -0.45603859      -0.04758957       0.01803480       0.08580038
C        1.01938966      -0.57976583       1.45232519       0.13544437      -0.05131772       0.14937505
N        1.03433214      -1.03810363       2.51146544       0.01976779       0.02706909      -0.11354813
C       -0.04527518       2.01071897       1.31673088       0.02801699       0.02193107      -0.00669404
H       -1.00415119       1.48624026       1.35484947       0.00105194       0.06356248      -0.06315174
H        0.48998838       1.87864970       2.26458317      -0.09946659      -0.01583550      -0.00744637
H       -0.23174540       3.08439583       1.18258939      -0.06059533      -0.09966832       0.08017232
N        0.28068798       1.90591283      -1.17750521      -0.08695890       0.07322566      -0.08375153
H       -0.02162857       2.87693513      -1.14338351       0.18958129      -0.06350463      -0.02288419
H       -0.58932486       1.37981955      -1.33501526       0.03756672       0.00386833       0.10153058
