16
Properties=species:S:1:pos:R:3:forces:R:3 Coordinates=T from=T ORCA-job=T run=T Energy:=T 43.9732459=T energy=-35328.20559975801 pbc="F F F"
C        0.06976884      -0.07307601       0.09806769      -0.04808303       0.04577320       0.05655126
H        1.61628032       1.30940832       0.12812401       0.06553833       0.02719934       0.05237670
Cl      -1.73640551      -0.19595035      -0.20451620       0.00960313       0.05035105       0.05272564
Cl       3.45857025      -0.09524280      -0.41918770       0.05385786       0.04432139      -0.00496501
C        0.52069980       1.38048600       0.03608977      -0.01439518      -0.02477813       0.08082934
H        0.53829303      -0.51490466      -0.77827073      -0.02787361      -0.03717353      -0.09121743
C        0.45206443      -0.86215756       1.32563569      -0.01052785       0.02057429      -0.06746967
H        1.54352707      -0.82799475       1.39139331       0.02187922      -0.02157521       0.01547878
H        0.02109105      -0.45918194       2.24228463      -0.05173230      -0.05849822      -0.04954423
H        0.14322152      -1.90182695       1.19219258       0.00176854       0.00911433       0.03425344
N        0.02951915       2.16305333       1.28227943      -0.02207856       0.00197883       0.01200253
O       -0.73603253       3.08928140       1.09685225      -0.00261602       0.02456424      -0.03541995
O        0.44184637       1.82529489       2.37080968       0.06075796       0.00511081      -0.02788767
N        0.15916320       2.02947293      -1.16370255      -0.01903982      -0.01110387       0.02589571
H        0.70611190       2.87034962      -1.28909923       0.01921437      -0.03732978      -0.00543362
H       -0.81890789       2.28825884      -1.14429298      -0.02832171      -0.03260252      -0.04527921
