14
Properties=species:S:1:pos:R:3:forces:R:3 Coordinates=T from=T ORCA-job=T run=T Energy:=T 8.7095974=T energy=-78838.99111452264 pbc="F F F"
C        0.90376946      -0.14880566      -0.15600067      -0.00859084       0.01590456      -0.00679841
H        1.01468641       1.87576360       0.68015173       0.04345908      -0.01972354       0.01458348
Br      -2.64407459       0.48079223       1.40644804       0.01078616       0.00517047      -0.00472735
H        1.87040822      -0.21731251      -0.67218306       0.00137053       0.01231051       0.02064334
C        0.46357811       1.29997581      -0.06222598      -0.00346292       0.00831004       0.00512810
H        0.17739041      -0.69473681      -0.76178192      -0.00167112       0.01451659      -0.01708913
H       -0.61218194       1.34457975       0.19378543      -0.00023656      -0.00615960       0.00491151
C        0.98664847      -0.76430598       1.23309697       0.00418543       0.00680809      -0.01159217
H        1.73537434      -0.25066043       1.84788161      -0.00185056      -0.02181100       0.01669687
H        0.01650025      -0.69061905       1.73448682       0.01041769      -0.01095535      -0.01607266
H        1.27192806      -1.81950928       1.17004097      -0.01653109       0.00413989       0.02819215
N        0.65142545       2.03188627      -1.33945248      -0.01850751      -0.00651371      -0.00131798
O        1.03837012       3.18554754      -1.27949827      -0.02294836       0.01846535       0.00544406
O        0.39226362       1.45080913      -2.37515384      -0.00125245      -0.02591295      -0.02668834
