15
Properties=species:S:1:pos:R:3:forces:R:3 Coordinates=T from=T ORCA-job=T run=T Energy:=T 109.1597291=T energy=-22471.042246758658 pbc="F F F"
C        0.02627590      -0.06614557       0.07758371      -0.04207876       0.02590832      -0.02712237
H        1.61407543       1.29402191      -0.01390214       0.08800997      -0.05536325       0.02096760
F       -1.38032928      -0.04801304      -0.02771895      -0.03342388      -0.03235933       0.02812288
Cl       3.60863908       0.16860680      -0.33875088       0.02026169      -0.00196539       0.01689317
C        0.51318196       1.37259075       0.05285618       0.02933386       0.00341922      -0.04342257
H        0.40365100      -0.52145333      -0.84162582       0.00664832      -0.03831289       0.06998248
C        0.42203055      -0.83497275       1.30782480      -0.03876174       0.05370733      -0.09493905
H        1.51377043      -0.87109761       1.35829935       0.00878962      -0.01173079       0.01710894
H        0.01895285      -0.34993780       2.20088796       0.04564258      -0.01351940       0.05081000
H        0.02437146      -1.85092391       1.26002211       0.02265941      -0.04295778      -0.03040677
C        0.15784748       2.08559606       1.28980323      -0.10997213       0.03579713      -0.04277442
N       -0.15915768       2.68522373       2.22434734       0.02650779       0.02949352       0.02386500
N        0.01490956       2.02494197      -1.14444496       0.01071510      -0.01404837      -0.05061168
H        0.45605970       2.92515522      -1.27342794      -0.00163894       0.00679832       0.03249025
H       -0.98570493       2.15463027      -1.08072740      -0.04234624       0.05526840       0.03332320
