16
Properties=species:S:1:pos:R:3:forces:R:3 Coordinates=T from=T ORCA-job=T run=T Energy:=T 91.4171450=T energy=-22034.738007827928 pbc="F F F"
C        0.66695558      -0.06968615       0.06505535      -0.01565154       0.02355004       0.02874521
H        1.88026640       1.65559168       0.13549748       0.00405388       0.05319551       0.01324591
Cl      -2.69939944      -0.35369825      -0.53527409       0.00749181       0.02771501      -0.04049004
F        1.63949053      -0.50669158      -0.85737407      -0.05718788      -0.02563057       0.01167486
C        0.79998291       1.46160543       0.06691185       0.00960107      -0.01724029      -0.01645796
H       -0.32302515      -0.35449104      -0.31681016       0.05281297      -0.00338928       0.00160571
C        0.93593385      -0.72385744       1.39461370       0.00173241       0.00583700      -0.01920719
H        1.86849280      -0.36684755       1.84933974      -0.03970475      -0.01599765      -0.01376549
H        0.10205805      -0.52816655       2.07324181       0.04921888       0.02018836      -0.00091637
H        1.00417009      -1.80441862       1.25420359       0.00566852      -0.02100476      -0.00748552
C        0.22124500       2.08738720       1.25082273       0.06815473      -0.06657448      -0.03645912
N       -0.15257419       2.61818513       2.20301045      -0.06314636       0.05776245       0.05053383
C        0.25392273       2.06853882      -1.22658594      -0.00037842      -0.01054286      -0.01745294
H        0.84189813       1.68300110      -2.06105264      -0.03245925      -0.03884549      -0.04620564
H       -0.78991254       1.77516668      -1.36592433      -0.00881396      -0.01642341       0.04259649
H        0.33073564       3.15884811      -1.22595518       0.00990779       0.00710133       0.03014745
