14
Properties=species:S:1:pos:R:3:forces:R:3 Coordinates=T from=T ORCA-job=T run=T Energy:=T 61.8682969=T energy=-78292.15439625391 pbc="F F F"
C        0.11470352       0.03345188       0.13006406      -0.02931976       0.01907824       0.05570893
H        2.83576620       0.84864917      -0.38467459      -0.01468118       0.00461606      -0.00198505
Br      -2.27573533      -1.14650085      -0.12692913       0.00786201       0.03319351      -0.02193751
H        3.46644891       0.48477237      -0.54114746       0.05911938      -0.00455847      -0.00601656
C        0.07495301       1.41195058       0.10179113      -0.00862027      -0.04206816       0.04510562
H        0.25479208      -0.46948265      -0.81662459      -0.00053352      -0.01475117      -0.00634901
C        0.45573573      -0.71648757       1.37416489      -0.02483063      -0.00644636       0.00768702
H        1.53452214      -0.62785603       1.57378346      -0.01640404      -0.01771462      -0.04014899
H       -0.07046186      -0.31537637       2.24205249      -0.02129769       0.01989941      -0.02144305
H        0.18239742      -1.76404786       1.26873456       0.05994615      -0.01253357       0.01668954
C        0.05293573       2.17609182       1.29755324       0.04454568      -0.02198489      -0.06890930
N        0.07332176       2.79521970       2.27593200      -0.02617790       0.03047903       0.05797816
C        0.03791070       2.12977924      -1.12020148      -0.03377835       0.07624833      -0.06897718
N        0.03857223       2.73276577      -2.10963931       0.00132726      -0.06190834       0.04950631
