17
Properties=species:S:1:pos:R:3:forces:R:3 Coordinates=T from=T ORCA-job=T run=T Energy:=T 35.0807206=T energy=-21031.72869684834 pbc="F F F"
C       -0.11235201      -0.08590978       0.03920539      -0.00643777      -0.00317654      -0.00387346
H        1.50831863       1.22741244      -0.22110027       0.01981859      -0.01071443       0.01252026
F       -1.51853577      -0.01116753       0.23831474       0.00332492      -0.02659728       0.00650199
Cl       3.79721178       0.64328719       0.99035614       0.01023338      -0.00866280      -0.00481963
C        0.42939382       1.32712264      -0.04889073       0.00986924      -0.01007396       0.00444583
H        0.00766664      -0.54982139      -0.94506067       0.00810241       0.00581365      -0.00778890
C        0.48884566      -0.94428059       1.11905759      -0.00944621       0.00704243       0.00107052
H        1.58216593      -0.92664410       1.04165064      -0.00980164       0.01661754       0.00039077
H        0.22664571      -0.56541381       2.11009885      -0.02682885       0.00687578       0.00133476
H        0.12103048      -1.97190972       1.03677219       0.00691893      -0.00058330       0.00341994
C        0.23969767       2.11113672       1.24658891      -0.00240267      -0.00904005      -0.02184475
H       -0.82015351       2.15478192       1.52612658       0.01749983      -0.00073165       0.01593946
H        0.81651580       1.66704945       2.06224082       0.00188571       0.03106930      -0.02567847
H        0.60809465       3.13462062       1.11946571      -0.00848274      -0.01712460      -0.00089332
N       -0.17509790       1.95827932      -1.22714632      -0.00006394      -0.00203697       0.02479628
H        0.22999453       2.88069530      -1.34407887      -0.01831678      -0.00113616       0.00434761
H       -1.16384482       2.09557391      -1.04060806      -0.00296400       0.02132975       0.00424967
