13
Properties=species:S:1:pos:R:3:forces:R:3 Coordinates=T from=T ORCA-job=T run=T Energy:=T 137.4412502=T energy=-145807.13792045874 pbc="F F F"
C        0.94267727      -0.11933047       0.18657848      -0.00695525       0.12145106      -0.17395763
H        1.16678128       1.87610898      -0.60821745      -0.03716734       0.08295189       0.04379072
Br      -2.07188758       0.27814571      -1.79149807       0.03857243      -0.01663185       0.05411847
Br       2.87176503      -0.36059822      -0.27701159      -0.05420410      -0.05272990      -0.01292674
C        0.58621420       1.36022045       0.15905078      -0.01466148       0.20662615      -0.19675617
H        0.38371330      -0.56874533      -0.64126443       0.14448280      -0.09806962       0.09696653
H       -0.46827260       1.41574389      -0.19036033       0.08353469      -0.07637568       0.09201084
C        0.69332490      -0.77085556       1.51832297      -0.06991100       0.00656104      -0.03809043
H        1.35441798      -0.33448682       2.27021784      -0.00341287      -0.16958169       0.08526308
H       -0.33438402      -0.55510793       1.82588539      -0.07542734      -0.11586573      -0.05366557
H        0.83696721      -1.84990800       1.46447431       0.01239989      -0.02210651       0.06725984
C        0.71392732       2.01427755       1.44617030      -0.23335144       0.01940241       0.21379494
N        0.69713512       2.45118870       2.51563780       0.20993073       0.11416163      -0.17680158
