14
Properties=species:S:1:pos:R:3:forces:R:3 Coordinates=T from=T ORCA-job=T run=T Energy:=T 41.4900699=T energy=-78838.63993102901 pbc="F F F"
C        0.63309071       0.00663923       0.15788961       0.00507096       0.03477038       0.04894396
H        2.11696152       1.51655222       0.64267629       0.00084111       0.00516248       0.00359828
Br      -2.48818297      -0.80220962      -1.63839223       0.03647493       0.00492903       0.00629092
H        1.17484583      -0.34230418      -0.73065634      -0.01628093      -0.03887491       0.04509175
C        1.07228870       1.45097163       0.31606084       0.00612883       0.03551033      -0.00395080
H       -0.42519938      -0.05867820      -0.13383723       0.01586359       0.02949546      -0.02035961
H        0.95232644       2.01640726      -0.60458099      -0.03534231      -0.01164537      -0.05079728
C        0.93422898      -0.89891737       1.34207830       0.01057133       0.00472446       0.00853949
H        1.95860032      -0.76713714       1.71126612       0.04957609      -0.02598765      -0.02384046
H        0.26473942      -0.69392521       2.17675904      -0.01668381      -0.01244064       0.02034472
H        0.80838787      -1.94657805       1.05792179      -0.04523472       0.01201886      -0.02615526
N        0.33041172       2.25515336       1.34613762       0.00304858       0.01419458      -0.01914491
O       -0.06838731       3.35161990       1.01337944      -0.01304498      -0.00902117      -0.02374624
O        0.22128412       1.79098320       2.46196063      -0.00239155      -0.05266347       0.03279045
