16
Properties=species:S:1:pos:R:3:forces:R:3 Coordinates=T from=T ORCA-job=T run=T Energy:=T 44.6174129=T energy=-31839.078323983922 pbc="F F F"
C        0.05491573      -0.07512923       0.15969663       0.01287101       0.01894788      -0.00795354
H        1.58695634       1.30438611       0.12198711       0.02846200       0.00508773      -0.00275292
Cl      -1.76239755      -0.23661157      -0.00342482       0.00406374      -0.00212254       0.00281921
Cl       3.24348679      -0.18751008      -0.95115848      -0.01685450       0.02356059      -0.00535613
C        0.48585500       1.38823151       0.09471634       0.03919313       0.00235016      -0.00512145
H        0.47713931      -0.55725783      -0.72207933      -0.03257024      -0.00302419      -0.00945922
C        0.52529319      -0.78735520       1.40197261      -0.01291569      -0.00421049       0.01059038
H        1.61975473      -0.75477625       1.39710007      -0.02221906      -0.01586067       0.00345216
H        0.13829548      -0.31810736       2.31074025       0.00060543       0.01150250      -0.00313240
H        0.21143814      -1.83274694       1.38483749       0.00754738      -0.01028329       0.00683398
C        0.04289103       2.15859753       1.25074649      -0.03393770      -0.00516598      -0.00731894
N       -0.30268617       2.78682436       2.15516908       0.01397182      -0.00058828      -0.00707590
C        0.12801347       2.08151243      -1.21714318       0.01292610      -0.00998763      -0.00144413
H        0.55868193       1.50414549      -2.03734501       0.02248052      -0.02082060      -0.00235715
H       -0.95201495       2.16207756      -1.35435466      -0.02079408      -0.00691705       0.00753935
H        0.56430297       3.08195747      -1.25020889      -0.01388203       0.01645409       0.01371472
