14
Properties=species:S:1:pos:R:3:forces:R:3 Coordinates=T from=T ORCA-job=T run=T Energy:=T 63.5074728=T energy=-80991.92809843461 pbc="F F F"
C        0.06035086      -0.07988084       0.09158473       0.03325875      -0.00195012      -0.01580464
H        2.12361800       1.02709940      -0.11236773       0.00980929       0.00650237      -0.00014592
Br      -2.04355878      -0.67086408      -0.07022226       0.01429183       0.01546834       0.00828478
F        3.00423833       0.67980090      -0.21339174       0.00670619       0.00666556       0.01378957
C        0.27210807       1.34902824       0.04484511      -0.00081145       0.00713052      -0.00010384
H        0.38351774      -0.56647482      -0.82390626      -0.02067440      -0.01095966      -0.00749413
C        0.53039925      -0.78565079       1.33686470      -0.00518777      -0.00327401       0.00447679
H        1.61758785      -0.67100218       1.40502123      -0.00631007      -0.00888396      -0.00039247
H        0.07999918      -0.34946141       2.23030101      -0.00215525       0.00645556       0.00082705
H        0.28170549      -1.84629298       1.30514312       0.00573221      -0.00907268      -0.01000074
C        0.16379829       2.11556916       1.22979456      -0.00319979       0.02546932       0.02387571
N        0.11012886       2.72665092       2.21532074       0.00395801      -0.01244013      -0.01662873
C        0.15396414       2.04057112      -1.18457370      -0.00383231      -0.00055366      -0.00159337
N        0.09993258       2.60199536      -2.19852737      -0.01255509      -0.01331931      -0.00445708
