14
Properties=species:S:1:pos:R:3:forces:R:3 Coordinates=T from=T ORCA-job=T run=T Energy:=T 21.7588879=T energy=-77479.94279777391 pbc="F F F"
C        1.01854910       0.04155300       0.06794408      -0.00973788      -0.02740498       0.01698173
H        1.55361948       2.11761279       0.38640012       0.00578757      -0.00917600       0.00352223
F       -1.51733283       0.02226661      -0.69355894       0.00098812      -0.00658010       0.02295173
Br       2.95889745      -0.22719314      -0.45202901      -0.00755980      -0.01615426       0.00848253
C        0.68336092       1.52454613       0.07437852       0.00435297      -0.02923521      -0.00107379
H        0.42877788      -0.42744083      -0.71928289       0.02425939       0.02947373      -0.02555642
H       -0.09547098       1.64039806       0.84697825      -0.01281589      -0.01629314       0.02175720
C        0.74781760      -0.66764010       1.37005297       0.00469962       0.00500634       0.00213765
H        1.12433418      -1.69432847       1.35718098      -0.03036928       0.01660213       0.00125843
H        1.17474584      -0.15287035       2.23860169       0.00139044       0.01824657      -0.02085112
H       -0.34552988      -0.69277825       1.44191353       0.03048424       0.03089249      -0.02459796
N        0.21473074       1.90934004      -1.24438186       0.00231831       0.01037749      -0.02311036
H       -0.09065646       2.87724860      -1.20749065      -0.03030048       0.01796342       0.01835021
H       -0.63864302       1.30599875      -1.31857920       0.01479232      -0.01839200      -0.00337300
