14
Properties=species:S:1:pos:R:3:forces:R:3 Coordinates=T from=T ORCA-job=T run=T Energy:=T 23.3781605=T energy=-11515.004177638144 pbc="F F F"
C        0.56083673      -0.20221018       0.26330849      -0.00171889      -0.01132548       0.00456861
H        1.58340172       1.77694754       0.24945459      -0.02765704      -0.00584782       0.02341029
F       -0.32022005       1.69535569      -2.03909211      -0.01035421      -0.01749453       0.01916847
H        1.08360514      -0.47914208      -0.66094836      -0.00590675      -0.01284599      -0.00337770
C        0.61438651       1.29527365       0.37207125      -0.01050896       0.00178524       0.00067462
H       -0.47914054      -0.51572028       0.12336086      -0.01545396       0.01853554       0.01547798
H       -0.04841108       1.65343720      -1.06842283       0.01858920       0.01054640      -0.01442934
C        1.15152856      -0.96219711       1.45139823       0.02293689      -0.01153222       0.00776376
H        2.21172709      -0.72393662       1.59002093       0.03273718       0.03102276      -0.01318423
H        0.62084941      -0.68086117       2.36413620      -0.01522759      -0.01226303      -0.00590209
H        1.07119336      -2.05090344       1.33077921      -0.02622641      -0.01105299      -0.00702656
N       -0.07989662       1.87451199       1.42626581       0.02546537      -0.00054499       0.00139807
O        0.20729829       3.02921747       1.78468884      -0.00867588       0.03005656       0.00235254
O       -1.01047781       1.24435220       1.96944093       0.00063348      -0.01515809      -0.03353442
