16
Properties=species:S:1:pos:R:3:forces:R:3 Coordinates=T from=T ORCA-job=T run=T Energy:=T 53.1820149=T energy=-18765.616566045377 pbc="F F F"
C        0.49373944      -0.03589354       0.01876940       0.00498579       0.02869691       0.03123979
H        1.08626481       1.63104337      -1.15999452       0.02114894      -0.02666316      -0.01715897
Cl      -0.35369338      -0.78700706      -1.43578483       0.00057302       0.03348907       0.01411572
H        3.41359457       0.21493398       0.60926206       0.01459836       0.01784933       0.00940788
C        0.58673780       1.48357446      -0.18724806      -0.00401968       0.00265978      -0.02088186
H        1.53043089      -0.41018268       0.00421900      -0.01032299      -0.02162874      -0.02223027
C       -0.22051700      -0.45713808       1.27572762       0.00470183      -0.01400376       0.00536802
H        0.31862245      -0.01828226       2.11847751      -0.01231301       0.00436446      -0.00748027
H       -1.25828221      -0.10529014       1.29808926       0.01602910      -0.01230447      -0.00368890
H       -0.22055704      -1.54449340       1.38047870      -0.00725904      -0.01961248       0.00153199
N        1.35131771       1.97899831       0.93434551      -0.02066954      -0.01391732      -0.03747779
H        1.58091858       2.94890537       0.73496764       0.04054174      -0.02097420       0.01932089
H        2.25065806       1.43020442       0.94027333      -0.01386750       0.02822811       0.01572187
N       -0.67134825       2.21639941      -0.25433763       0.00037986       0.01000977      -0.01003264
H       -1.12936819       2.12065944       0.64668177      -0.00588566       0.00929966       0.00784204
H       -1.26945739       1.78555229      -0.95282757      -0.01783307      -0.01112667       0.00969453
