18
Properties=species:S:1:pos:R:3:forces:R:3 Coordinates=T from=T ORCA-job=T run=T Energy:=T 14.8389874=T energy=-78113.96917530934 pbc="F F F"
C        0.89701775       0.00668161       0.03855704      -0.00984231      -0.45314790      -0.32161584
H        1.88806622       1.87511188       0.21800870       0.19271779      -0.00086368      -0.03351326
Br      -2.67219017      -0.40126412       0.49895852      -0.08997093      -0.01349960      -0.02039013
F        2.05637801      -0.36981652      -0.70855863      -0.16641805       0.22679754      -0.04781091
C        0.85677382       1.53562379       0.07739698      -0.08154859      -0.10947051       0.05944379
H        0.03921815      -0.33248576      -0.56577940       0.16849567      -0.02057078       0.41619393
C        0.96879535      -0.78129117       1.33214924      -0.24234125      -0.15493096      -0.01010230
H        1.98827891      -0.82696492       1.73810796      -0.10294293       0.28723216      -0.03345565
H        0.26195709      -0.40964052       2.07090847       0.03546598       0.16441755       0.07504409
H        0.63697545      -1.80867960       1.16032889       0.13804690      -0.01404816      -0.19356841
C        0.01475315       2.10849472       1.21439193       0.00362400       0.04757105       0.08825368
H       -1.04261567       1.83099914       1.13731566       0.09977710      -0.09755114      -0.12921946
H        0.36293648       1.75717132       2.18840608       0.07731307       0.05892060       0.06011808
H        0.09611056       3.20169559       1.21153972      -0.03462013       0.02790091      -0.00025103
C        0.31664128       2.02876126      -1.26412535      -0.06294151       0.05879957      -0.03309639
H        0.81700160       1.56760526      -2.12291511       0.04379411      -0.06691289       0.13614651
H       -0.74829210       1.77915722      -1.30675112      -0.00230991      -0.04309378      -0.11735590
H        0.40570208       3.11245936      -1.38053753       0.05303322       0.10869140       0.09238540
