15
Properties=species:S:1:pos:R:3:forces:R:3 Coordinates=T from=T ORCA-job=T run=T Energy:=T 59.1546371=T energy=-13456.482908292326 pbc="F F F"
C        1.24590913       0.10637116       0.26308803       0.00071326      -0.00465682       0.00401947
H        1.80459334       2.14617682      -0.19620429       0.02158431       0.00241679       0.00024113
F       -1.45354327      -0.46994874      -1.11560184      -0.00692872       0.00351637      -0.00266593
H        2.15047121       0.08563452       0.87935504       0.02722175      -0.01817742      -0.01577417
C        0.89144982       1.56802966       0.01915116       0.00402066       0.00960361      -0.00904502
H        1.48993983      -0.30965285      -0.73002837      -0.01136708      -0.00046521      -0.01046236
N        0.15727539      -0.56303526       0.94555557      -0.01096645      -0.00275803       0.01918964
H        0.45092216      -1.51307667       1.14673684       0.00330228      -0.00022240       0.02115616
H       -0.61977041      -0.63480028       0.24323064       0.00575947      -0.01304404      -0.01025440
N        0.56079564       2.17047999       1.43678990       0.00265595       0.00459054       0.00865160
O       -0.51266359       2.70204551       1.60665363      -0.00105701      -0.00423190      -0.00480643
O        1.45636080       2.14585952       2.25957512      -0.01488724       0.00819867       0.02365216
N       -0.11551370       1.74599393      -0.93095354      -0.01487095       0.01033309      -0.00057948
H       -0.63295362       2.59939324      -0.77418835       0.00073802       0.01081904      -0.00167263
H       -0.76136454       0.90712634      -1.02266233      -0.00878056      -0.01004306      -0.00994866
