13
Properties=species:S:1:pos:R:3:forces:R:3 Coordinates=T from=T ORCA-job=T run=T Energy:=T 63.8013813=T energy=-11949.372153506953 pbc="F F F"
C       -0.09383080      -0.09164688       0.06430054      -0.14366021      -0.15551311       0.00639907
H        1.77393103       1.06341933       0.21781363       0.74183099       0.03050296      -0.03922456
F       -1.47960396      -0.03323480       0.43627794       0.22173693       0.02458222       0.01820305
H        2.76609254       0.76342240       0.56426019       0.02760023      -0.06805055      -0.01245021
C        0.50565273       1.27507903       0.00376565      -1.00170988       0.06214164      -0.33025068
H       -0.13796941      -0.53235768      -0.94011451       0.09353562       0.20399244       0.06281473
H        0.24142474       1.94024308       0.82622819      -0.04370218      -0.15849600      -0.07278360
N        0.58924116      -0.89993721       1.02153024      -0.12869171      -0.04168947      -0.06581542
H        1.57448070      -0.61317508       1.05741747      -0.14029201      -0.11826882      -0.00291041
H        0.51592196      -1.87758749       0.75895778       0.15716287       0.17252931       0.14120116
N        0.29023320       1.95335849      -1.22310492       0.33996177       0.23516431       0.15506874
O        0.25199764       3.19156455      -1.19675159      -0.04389948      -0.05454437       0.02124909
O        0.28199210       1.32399433      -2.29064635      -0.06615204      -0.11384467       0.10291313
