16
Properties=species:S:1:pos:R:3:forces:R:3 Coordinates=T from=T ORCA-job=T run=T Energy:=T 40.0278047=T energy=-80343.53264430234 pbc="F F F"
C        0.93810401      -0.11253989      -0.12035614      -0.02082862      -0.01939811       0.04483880
H        1.89472843       1.77173663       0.34367801       0.02100626       0.06307082      -0.01189258
Br      -2.47742217      -0.76524257      -0.08808109      -0.01521378      -0.02447892       0.00270895
H        1.86186372      -0.29087794      -0.69015305       0.00993033       0.01687937      -0.04541231
C        0.89494320       1.43385900       0.05501262       0.02422826       0.02593072      -0.04152590
H        0.08666256      -0.39135042      -0.74638294      -0.01142410      -0.03368233      -0.00439651
N        0.89950713      -0.96124441       1.03969167      -0.01563782      -0.01612634       0.06620193
H        1.34419262      -0.51702748       1.83376697      -0.04667833      -0.00454865      -0.01129215
H       -0.08260563      -1.10091002       1.27506953       0.01650881      -0.00208056      -0.04279366
N        0.07524109       1.88485805       1.23501117       0.00764294       0.03398941      -0.03697936
O       -0.90231748       2.56944180       1.04789446       0.02862068      -0.05310458       0.07447603
O        0.50387859       1.56490721       2.33299361      -0.02821974       0.02605338      -0.02909218
C        0.40495836       2.09123398      -1.21380883      -0.01619416       0.01395620      -0.03844022
H        1.01602424       1.75065933      -2.05553273       0.01526131      -0.02625324       0.01873613
H       -0.62870684       1.79063685      -1.39385071      -0.01497045      -0.02280782      -0.00948324
H        0.44734118       3.18202560      -1.17790951       0.03851609       0.01213126       0.06305745
