14
Properties=species:S:1:pos:R:3:forces:R:3 Coordinates=T from=T ORCA-job=T run=T Energy:=T 155.1550199=T energy=-22906.28678609587 pbc="F F F"
C        1.07303950       0.06522025      -0.04518179      -0.05015187       0.07769083       0.02958122
H        1.70811218       2.08957260       0.20441663       0.01509790      -0.01695899      -0.05544763
F       -1.41869059      -0.27094023       1.44511089      -0.00663181      -0.04057279       0.00942643
Cl       2.72371280      -0.16797821      -0.88930838      -0.07384740      -0.01632742      -0.01176971
C        0.76766948       1.58474959      -0.04479367      -0.00639609       0.02646034      -0.01805407
H        0.38710528      -0.46580449      -0.71872914       0.06143710       0.02483172       0.05536649
N        1.12700646      -0.41467788       1.28326941       0.01116305      -0.02645373      -0.01145582
H        1.38228853      -1.39547406       1.22667001       0.00075936      -0.05370415       0.09324323
H        0.08511170      -0.40806945       1.56656831       0.07642173      -0.01147345      -0.08031887
N       -0.25391457       2.00525528       0.89342847       0.01668504      -0.01789050       0.02264783
H        0.20459349       2.07562675       1.79463438       0.00142585      -0.00474951       0.00494536
H       -0.92491069       1.21061418       1.02761351      -0.07338930       0.01705910      -0.01438637
C        0.40256405       2.00946360      -1.40674417       0.06080464      -0.01077161       0.03592984
N        0.11126765       2.33024922      -2.47468233      -0.01907438       0.04694464      -0.04592560
