14
Properties=species:S:1:pos:R:3:forces:R:3 Coordinates=T from=T ORCA-job=T run=T Energy:=T 59.0260102=T energy=-22906.634261306943 pbc="F F F"
C        0.29360261      -0.23578114      -0.14336396       0.22525070      -0.14705547       0.15177884
H        1.63643970       1.37348876      -0.11550296       0.25615039      -0.21984715      -0.14737800
Cl      -2.36746202       0.10957419       0.34864668      -0.09840144       0.07297628      -0.09641329
F        2.75796472       0.36571819       1.78472286       0.22774185       0.16875545       0.11267463
C        0.55075664       1.25221979      -0.10547179       0.11759695       0.25297682      -0.12930747
H       -0.28933303      -0.57490728      -0.99453342       0.01143141      -0.08305450       0.06160063
N        0.95862774      -0.98187935       0.65358320      -0.23437688       0.22071526      -0.10915932
H        2.02767415      -0.20658153       1.49567988      -0.00527790      -0.26923230      -0.05537273
H        0.79340438      -1.97186914       0.51916917      -0.09764052      -0.02159811      -0.04103926
C        0.19819344       1.94079577       1.13857724      -0.10202350      -0.10960010      -0.05106739
N        0.05108447       2.65443193       2.02836358      -0.13177333       0.18322044       0.34507502
N        0.03862831       1.90809933      -1.29542635      -0.07744274      -0.06191249      -0.04905982
H        0.48042202       2.81351371      -1.35813256      -0.06634135       0.20331249      -0.06025825
H       -0.96220617       2.05484225      -1.19700904      -0.02266853      -0.20294509       0.07672205
