16
Properties=species:S:1:pos:R:3:forces:R:3 Coordinates=T from=T ORCA-job=T run=T Energy:=T 59.7130293=T energy=-15718.458831895257 pbc="F F F"
C        1.03182470      -0.07060451      -0.03084325       0.01139714      -0.00752373      -0.04387002
H        1.66514584       1.90154397       0.46671716      -0.00955249       0.01249316       0.04258125
F       -1.44581417       0.20409901       0.14181809      -0.01203859      -0.00190272      -0.00058484
F        2.33580035      -0.08394143      -0.64077375      -0.03273278       0.00379064      -0.02054387
C        0.73745451       1.42541169       0.11894677      -0.00337803      -0.00911140      -0.00330119
H        0.35110858      -0.46511449      -0.77938440       0.01300502      -0.02218417      -0.01696058
N        1.09218451      -0.85313440       1.14834072       0.02837481       0.01193523      -0.01692365
H        0.71056014      -1.76606171       0.93498071      -0.03951729       0.05551172       0.01914162
H        0.46996567      -0.42454174       1.82672740       0.04584052       0.00589893       0.01731017
N       -0.25696024       1.81248395       1.19018792      -0.03746212       0.02624683      -0.01885579
O       -0.93950814       2.79473398       0.98541877       0.01562633      -0.01242876      -0.01851746
O       -0.12073030       1.31839016       2.30198898       0.00244073      -0.01153128       0.05715532
C        0.27356337       1.98355212      -1.20829301      -0.01366793      -0.02623249      -0.01583080
H        0.93487775       1.62020113      -1.99963235       0.04430505       0.02644800       0.02206697
H       -0.73232257       1.57819527      -1.33737585      -0.01631719      -0.00515729      -0.01856243
H        0.24971729       3.07504190      -1.22299413       0.03251400      -0.04412045       0.02564197
