16
Properties=species:S:1:pos:R:3:forces:R:3 Coordinates=T from=T ORCA-job=T run=T Energy:=T 47.6470277=T energy=-15719.24066223892 pbc="F F F"
C       -0.04957681      -0.14573059       0.05463881       0.00955846      -0.01777755       0.00043129
H        1.59952840       1.16161979       0.01185077       0.02868302       0.00445025      -0.01936836
F       -1.44814850      -0.11155478       0.34131797      -0.00830286      -0.00339735       0.02462196
F        2.84205979       0.54602234       0.87707851       0.00051225      -0.03903186       0.00268317
C        0.47260551       1.28075980      -0.00326272       0.01003770       0.00388411      -0.00894407
H       -0.01912719      -0.59249211      -0.94429470       0.01182122       0.00698686      -0.01834699
N        0.64479777      -0.84801450       1.05975899       0.00564410      -0.02269133      -0.01189823
H        1.61913114      -0.44490321       1.12619067      -0.02267832       0.03760844       0.01126149
H        0.68965122      -1.83254191       0.83695269       0.00355863      -0.02992848       0.00437251
C        0.10675930       2.10128276       1.20751171      -0.00316167      -0.00958227       0.00520937
H       -0.97346625       2.18586075       1.34237302      -0.01133539       0.02601562      -0.02810679
H        0.53915235       1.58595967       2.06490796       0.02038722       0.01557731       0.01849917
H        0.54691814       3.09694488       1.14277777      -0.02331342      -0.00044801       0.01048039
N        0.08247413       1.93210934      -1.27738540      -0.01784918       0.02039623      -0.00018685
O       -0.30242331       3.08845084      -1.24832876      -0.00669825       0.02729226      -0.01663945
O        0.22013975       1.30044578      -2.31316482      -0.02007983      -0.02932050       0.03032654
