15
Properties=species:S:1:pos:R:3:forces:R:3 Coordinates=T from=T ORCA-job=T run=T Energy:=T 88.5831074=T energy=-9966.691364314962 pbc="F F F"
C        1.24536194       0.07170112       0.22589366      -0.00898668      -0.01326774      -0.00477407
H        1.85020610       2.03179202      -0.44235795      -0.00674149      -0.01192207       0.00435075
F       -1.29337372      -0.85388056      -1.06179880      -0.03918923      -0.00831461       0.01480126
H        2.22186669      -0.01946321       0.72489986      -0.02300027       0.02323389       0.00651289
C        0.95604064       1.57125874       0.00734696       0.02277104      -0.02165209       0.02447476
H        1.33280235      -0.37348727      -0.77941143       0.01289953       0.00011148      -0.01953063
N        0.19544012      -0.53305486       1.01369760      -0.00874034       0.00421349       0.00685038
H        0.53853061      -1.41010569       1.39147215       0.00965908       0.00678049      -0.03398152
H       -0.55434999      -0.77137194       0.29752802       0.00431824       0.03254261      -0.02078635
C        0.80030559       2.24005713       1.29860923      -0.01008729       0.04441568       0.01594495
N        0.73502695       2.82868966       2.28974790       0.00802204       0.00584577      -0.00955286
C       -0.25081028       1.80585688      -0.91801784       0.03598515      -0.02578978       0.01729100
H        0.09624286       1.73074613      -1.95398434      -0.01104840       0.01368581      -0.00282503
H       -0.98538448       0.99045151      -0.80597742       0.00307452       0.00346366      -0.02295885
H       -0.68821875       2.80024056      -0.77468625       0.00745592      -0.04416725       0.01892581
