17
Properties=species:S:1:pos:R:3:forces:R:3 Coordinates=T from=T ORCA-job=T run=T Energy:=T 38.1919692=T energy=-75849.956701067 pbc="F F F"
C        0.26278081      -0.03367751       0.01999987       0.21692186      -0.00740594      -0.11786361
H        1.67177339       1.55693986      -0.02086025      -0.08512454      -0.08024870      -0.13055835
Br      -3.32447282      -0.06300616       0.44878075       0.03031270       0.03105568      -0.07283519
H        4.17836426      -0.61276109       0.93860883       0.05602196      -0.04144723       0.03700199
C        0.57930827       1.43154193      -0.06510473      -0.04400849       0.09103401       0.01064509
H       -0.59931296      -0.37476769      -0.56812845      -0.04867347       0.00111099       0.22514415
N        0.93793950      -0.78274623       0.79017986      -0.08444521      -0.29083085      -0.04223931
H        3.44721638      -0.72458086       1.05456766      -0.06179430       0.05810421      -0.04389656
H        0.51781590      -1.71227433       0.78276642       0.09072486      -0.07196047       0.01120497
C       -0.01640236       2.07347410       1.19161398       0.00398455       0.05430943       0.01597799
H       -1.10978608       2.07345740       1.13290964       0.04409010      -0.15512455       0.13431584
H        0.30340823       1.48403114       2.05382071      -0.13870967       0.09989712       0.09833791
H        0.32735681       3.10190000       1.33434688       0.06311868       0.12758621      -0.11024385
C       -0.02727508       2.02657041      -1.32671419      -0.08016431       0.09571411       0.03101221
H        0.32833907       1.55926090      -2.25387318       0.05558531      -0.02080151       0.12163480
H       -1.10973535       1.88482403      -1.26715205      -0.08432324      -0.01170962      -0.14781194
H        0.16022269       3.10010891      -1.39598309       0.06607222       0.11316404      -0.01760263
