14
Properties=species:S:1:pos:R:3:forces:R:3 Coordinates=T from=T ORCA-job=T run=T Energy:=T 106.5343995=T energy=-24263.99449250522 pbc="F F F"
C        0.78329271       0.06687443      -0.14552551      -0.02321478      -0.01815124       0.01307625
H        1.84597834       1.68336904       0.81754456       0.02856968      -0.00786136       0.00098681
Cl      -1.97604896      -1.94833742       1.19745097       0.02024555      -0.00419822      -0.02754415
H        1.54434165      -0.17553855      -0.89642536      -0.01187473       0.01441499       0.02501720
C        0.97747567       1.57038886       0.17012385       0.01334512      -0.00184950      -0.00173201
H       -0.20004584      -0.05621923      -0.61837453      -0.02871923      -0.00507065       0.02089637
N        0.94500558      -0.70902598       1.05345596      -0.02228959       0.00559056       0.00046177
H        1.44427312      -1.56241154       0.83932423      -0.00081207       0.01334484      -0.01120585
H        0.01118041      -1.02565595       1.35853044       0.01772616      -0.01827765      -0.00004651
N       -0.19448834       2.09409702       0.97867658       0.01794462       0.02814410      -0.00787365
O       -1.20765819       2.34136902       0.36914805      -0.02072451      -0.01134369       0.00425252
O       -0.01694509       2.20893513       2.16743398       0.00134306       0.00907750      -0.02625505
C        1.11999445       2.37621033      -1.03139900      -0.00493398      -0.01626750      -0.00311104
N        1.29389399       2.97710177      -1.99881772       0.01827234       0.01358659       0.00508273
