14
Properties=species:S:1:pos:R:3:forces:R:3 Coordinates=T from=T ORCA-job=T run=T Energy:=T 97.2880891=T energy=-10400.94810738181 pbc="F F F"
C        0.60364883      -0.04847393      -0.24955419      -0.00772520      -0.00428056      -0.01584116
H        1.27537832       1.77140961      -1.16619981      -0.01081615       0.00816723      -0.00621417
F       -0.13063167      -0.60963975      -1.29667273       0.03770619      -0.02359622      -0.01956596
H        2.46241086       0.14493128       2.09740255       0.00643867       0.01521951       0.00604635
C        0.56899544       1.49103520      -0.37327320       0.01267459       0.00093360       0.02231669
H        1.64580934      -0.36839150      -0.40533881      -0.02542146      -0.01166730       0.03362163
N        0.06597278      -0.46016374       1.00619580       0.02489700       0.00025370      -0.03879678
H        0.87368113      -0.30313193       1.66721096      -0.00419429      -0.01496629      -0.01513878
H       -0.03836173      -1.47159293       0.95941738      -0.01337663       0.00652853       0.00197667
N        0.95049042       2.17937626       0.85121849       0.02072140       0.00352301       0.02133612
H        1.76205904       1.66126698       1.24466825       0.03188224      -0.00713961      -0.00405053
H        0.22702664       1.96526376       1.53287757      -0.03420663       0.01683244      -0.00399598
C       -0.74648012       1.95487349      -0.82681898      -0.03542456       0.01593195      -0.00219404
N       -1.76807615       2.35085568      -1.18669740       0.01938215      -0.01291481       0.00540600
