13
Properties=species:S:1:pos:R:3:forces:R:3 Coordinates=T from=T ORCA-job=T run=T Energy:=T 75.2905897=T energy=-23909.592281887883 pbc="F F F"
C        0.01043461      -0.12542539       0.03593833      -0.00888832      -0.03428388       0.00393459
H        2.08363427       1.06400744       0.08279319      -0.01653187       0.01642000      -0.02191224
Cl      -1.91877988      -0.56682278       0.08898232       0.01568110      -0.00334648      -0.00360648
F        2.96409668       0.70064601       0.24941880       0.00666806       0.02017889       0.01155457
C        0.29134068       1.31006205       0.00812379       0.00338688      -0.01891635       0.01160394
H        0.20905514      -0.57071107      -0.94018290       0.01576115      -0.00762830      -0.01388328
N        0.55444250      -0.78594960       1.16602747       0.00541641      -0.01769577       0.01672718
H        1.51847259      -0.50014791       1.29222730      -0.00584116      -0.00692183      -0.00602489
H        0.49809204      -1.79031535       1.06916822      -0.02047507       0.03625851      -0.00765558
C        0.11430943       2.07407093       1.18888352       0.01334684       0.00816497       0.04391486
N        0.01243670       2.70934484       2.15367236       0.01268720       0.00978639      -0.01089066
C        0.12972320       1.97896315      -1.22840848       0.02079566      -0.03137521      -0.00335987
N        0.04405096       2.50058847      -2.26136352      -0.00984535       0.03551826      -0.02307125
