15
Properties=species:S:1:pos:R:3:forces:R:3 Coordinates=T from=T ORCA-job=T run=T Energy:=T 50.3166287=T energy=-79989.7820990949 pbc="F F F"
C        0.78789381       0.03192406      -0.01117879      -0.02151901       0.04649014       0.05254809
H        1.92713598       1.79192830       0.44151666      -0.00471610      -0.03256929       0.04964853
Br      -2.24562144      -1.57514951       0.65335711       0.01154157      -0.05761674       0.06399269
F        1.70440635      -0.38098089      -0.99595172       0.01191428      -0.00394653       0.01633209
C        0.90822502       1.55932701       0.10201498      -0.04059095       0.06840095       0.08951393
H       -0.21821389      -0.25276601      -0.32923700      -0.04692802       0.04265782      -0.09868080
N        1.04706289      -0.59562315       1.23283827       0.04037193      -0.00083154      -0.01808147
H        1.99816557      -0.93664541       1.25955142       0.02442099      -0.00293661       0.05507301
H        0.38123028      -1.35282510       1.37458717      -0.03375225       0.02259710      -0.07081578
C       -0.11659582       2.07786126       1.12327660       0.01675966       0.01706851      -0.01356181
H       -1.10005636       1.63957165       0.91926083       0.08406111       0.04305283       0.05453592
H        0.19662344       1.75268573       2.11858955      -0.10018263      -0.02755969      -0.11060531
H       -0.20149743       3.17087059       1.10817598       0.07817002      -0.11457867      -0.04474574
C        0.76447711       2.22950777      -1.18746455       0.06819004       0.05498175      -0.00772227
N        0.69273768       2.82635036      -2.17212205      -0.05661095      -0.06628307       0.00379215
