12
Properties=species:S:1:pos:R:3:forces:R:3 Coordinates=T from=T ORCA-job=T run=T Energy:=T 49.9281993=T energy=-21402.0746789975 pbc="F F F"
C        0.34077682      -0.23533999      -0.19370116       0.03178172       0.05117921      -0.01729831
H        1.78992901       1.33873138      -0.21734077       0.06553492      -0.05919609       0.00329747
Cl      -2.29017287       0.50711624       0.78570452      -0.00638537      -0.03165400       0.05248947
F        2.84260001       0.34266591       1.75468854      -0.00510738      -0.00191186       0.06059836
C        0.70400547       1.22605137      -0.25298162       0.00707792       0.08197903       0.02078758
H       -0.52376669      -0.56605078      -0.76377921       0.04790043      -0.01530494      -0.00124738
H        0.31528842       1.68676279       0.65773835      -0.16518988       0.06053624      -0.01563883
N        1.07646486      -1.00421506       0.50673870      -0.16246438       0.04670629      -0.00938572
H        2.15919965      -0.25801867       1.40862884       0.14966615      -0.04289047      -0.12552618
H        0.71806413      -1.95270675       0.51626287       0.01582601      -0.05882553       0.05245853
C        0.17990617       1.91387268      -1.41978296       0.02924902      -0.11727352       0.03163053
N       -0.17522418       2.44009677      -2.38073404       0.01347217       0.08182877      -0.06361796
