13
Properties=species:S:1:pos:R:3:forces:R:3 Coordinates=T from=T ORCA-job=T run=T Energy:=T 26.0740483=T energy=-14650.46778254168 pbc="F F F"
C        1.19056468      -0.07193118      -0.13448251      -0.00133229       0.00954728      -0.00637146
H        1.07398446       1.96007327       0.57636050      -0.02479731      -0.00194966      -0.01960184
F       -1.38776211       0.23427924       1.40368528       0.00306597       0.00109682       0.01753683
F        2.56874245       0.10177041      -0.43423343       0.00711208       0.01225430       0.01022253
C        0.51713053       1.27302838      -0.05832945      -0.01812304       0.01052831      -0.01506970
H        0.80982015      -0.62560676      -1.00131140       0.00559092       0.00288147       0.00399652
H       -0.50678558       1.05804267       0.42782992       0.02631304      -0.00728039      -0.00691144
N        1.04332220      -0.70904370       1.12141246      -0.00340839      -0.00963009      -0.01857058
H        1.12839354      -1.71098239       1.00955723      -0.00110954      -0.02737332       0.00339118
H        0.07231382      -0.48153733       1.45210458       0.01200748       0.00843160      -0.00609583
N        0.33346412       1.92829104      -1.35326411      -0.03236884      -0.00241187       0.00831815
O        0.40028939       3.14769873      -1.38318410       0.02419529       0.01202654       0.00296131
O        0.05320987       1.24864324      -2.32837686       0.02673353      -0.01882815       0.02799063
