13
Properties=species:S:1:pos:R:3:forces:R:3 Coordinates=T from=T ORCA-job=T run=T Energy:=T 38.8609048=T energy=-91777.33223050671 pbc="F F F"
C        0.32715456      -0.04366681      -0.25312115      -0.01233715      -0.05732789       0.00374815
H        1.67025101       1.47481397      -0.72084011      -0.01261667       0.05249143      -0.01548255
Br      -1.43421892      -0.33118891       0.52322456       0.01514040      -0.04614831      -0.07778579
Cl       2.74276746      -0.33018307       1.87375527      -0.00734456      -0.00736579       0.00217287
C        0.65833315       1.42448528      -0.31651650       0.02429919      -0.01913342       0.01633705
H        1.06155950      -0.52884663       0.42619295       0.01811529       0.02173846      -0.05750100
H        0.72224343       1.74989959       0.72876452       0.07255750       0.03878881      -0.02735837
N        0.44689146      -0.71329764      -1.60445674      -0.02864908      -0.07015486      -0.01761729
O        1.38878408      -0.34709112      -2.27884997      -0.10051458       0.01293075       0.12464374
O       -0.31671939      -1.60209608      -1.90797539       0.02416256       0.12563675       0.05629907
N       -0.26465816       2.18094639      -1.15413342       0.09855761       0.04197456       0.00628853
H        0.17809794       3.04672763      -1.44279445      -0.05545392      -0.09212450       0.06271399
H       -1.07642429       2.43051865      -0.60179759      -0.04117020       0.00044542      -0.07649290
