13
Properties=species:S:1:pos:R:3:forces:R:3 Coordinates=T from=T ORCA-job=T run=T Energy:=T 27.5960206=T energy=-34259.164934091335 pbc="F F F"
C        0.86558314      -0.06536575      -0.16153015      -0.03887240       0.13358464      -0.02619277
H        1.84757724       1.73002172      -0.71725670       0.02570782       0.01628995       0.05500244
Cl      -2.35986863       0.62618311       0.94282911       0.00498434      -0.01701177       0.04318613
Cl       2.10508870      -0.68660255       0.96264620       0.04504274       0.03237324       0.06599392
C        0.89318387       1.44104237      -0.26631666      -0.07074452       0.04383631      -0.06660837
H       -0.10800510      -0.43406471       0.16350018      -0.04592520      -0.00822906       0.01111089
H        0.85491434       1.85188218       0.75718506      -0.10420924      -0.16287473      -0.06526267
N        1.17113958      -0.71098184      -1.50247886       0.09827979      -0.04344106       0.00495178
O        2.02706899      -0.20342159      -2.19098725       0.00742174       0.00125678      -0.02105735
O        0.56960149      -1.72736412      -1.76047866      -0.07822593       0.04191004      -0.03236493
N       -0.19759152       1.82945289      -1.14286549      -0.06193506       0.01931139      -0.00465478
H       -0.23342071       2.84124353      -1.19293607       0.09963866      -0.01015607      -0.08969755
H       -1.08249754       1.54904083      -0.70116228       0.11916936      -0.03198689       0.12853742
