14
Properties=species:S:1:pos:R:3:forces:R:3 Coordinates=T from=T ORCA-job=T run=T Energy:=T 23.2188034=T energy=-33822.98155339871 pbc="F F F"
C        0.43869803      -0.05272877      -0.20055776      -0.01918733      -0.00057343      -0.00260666
H        1.78755037       1.46764726      -0.70818981       0.00646615       0.00969794       0.00564331
Cl      -1.16154396      -0.32718799       0.52360818      -0.01396722      -0.00898586      -0.00001659
Cl       2.65304417      -0.59933101       2.06222142       0.01276618       0.00882328      -0.01769986
C        0.75656875       1.41788226      -0.35292456       0.00519754      -0.00092819       0.01225942
H        1.19475816      -0.51038427       0.48302813      -0.01641141       0.00960882       0.00480156
H        0.76968853       1.81949922       0.66292275       0.00173938      -0.00169005       0.01790010
N        0.54101089      -0.77646096      -1.52139413      -0.04153213       0.00357259      -0.00893607
O        1.50157888      -0.46583397      -2.20027177       0.02173284       0.02226524      -0.00380465
O       -0.26592897      -1.62731129      -1.81462087       0.00262588      -0.02360259       0.00466620
C       -0.17480778       2.20806500      -1.25775993       0.01598099       0.00140721      -0.00175973
H       -0.12284180       1.85575192      -2.29240204      -0.00026179      -0.01842247      -0.00104810
H       -1.21542366       2.14309468      -0.92771925       0.01811057      -0.01229682       0.00583152
H        0.10745770       3.26476267      -1.25887740       0.00276625       0.00938151      -0.00860532
