11
Properties=species:S:1:pos:R:3:forces:R:3 Coordinates=T from=T ORCA-job=T run=T Energy:=T 14.7722682=T energy=-32754.304876828734 pbc="F F F"
C        0.88338815      -0.07480095      -0.07838797      -0.01163949      -0.00809948       0.00247761
H        1.70022122       1.82420096      -0.67497254      -0.02660566       0.00330124       0.04481853
Cl      -2.22951838       0.18036308       0.89269695       0.00542541      -0.00312281       0.00320137
Cl       2.26573358      -0.63485634       0.92431598       0.01108909      -0.03120348      -0.02118846
C        0.82604644       1.41634134      -0.16374971       0.01642159       0.02508688      -0.01321277
H       -0.04559905      -0.48661353       0.33935273       0.00813912       0.02601145      -0.01512161
H        0.74930201       1.81277948       0.85099383      -0.04983241      -0.01653890      -0.08397949
H       -0.09279250       1.68556777      -0.69158918       0.04979476       0.02451789       0.05456838
N        1.07948584      -0.71456490      -1.44425549       0.03903894       0.00115917      -0.05315457
O        1.50458358      -0.01754844      -2.34426248      -0.04889721      -0.03995868       0.06016862
O        0.79866984      -1.88556625      -1.54164796       0.01580224       0.01010379       0.03195003
