13
Properties=species:S:1:pos:R:3:forces:R:3 Coordinates=T from=T ORCA-job=T run=T Energy:=T 49.3097784=T energy=-28510.252585559712 pbc="F F F"
C        0.99802954      -0.06557500       0.14433306       0.00696730      -0.01941572      -0.03734868
H        1.23607207       1.95257710      -0.62737531       0.00655794      -0.02389689      -0.01091233
F       -1.80650882       0.83412997      -0.94741143       0.00900485       0.02701227      -0.01605105
Cl       2.79779967      -0.58257850       0.78024662       0.00190183       0.00418220      -0.00147607
C        0.71201394       1.32500594       0.07921745       0.02751421      -0.03278236      -0.00268146
H        0.38393348      -0.65504051       0.81027029      -0.00088436       0.03540348       0.01877156
H       -0.95430397       1.10292959      -0.60200598       0.00596300       0.00326148      -0.00200597
N        0.98756675      -0.71260273      -1.21106301      -0.01582682      -0.01431704      -0.01007610
O        1.52138363      -0.12834950      -2.12670620       0.01162662       0.04554251      -0.00467441
O        0.43899222      -1.78968711      -1.29000826      -0.00966125      -0.01350397       0.04003272
N        0.44187041       1.97412912       1.29734876       0.02864919      -0.02946065      -0.02760676
O        0.56971159       3.19753230       1.32904838      -0.06524257       0.01631718       0.03233063
O        0.06251313       1.31218601       2.26485994       0.02418495       0.00331400       0.00288889
