15
Properties=species:S:1:pos:R:3:forces:R:3 Coordinates=T from=T ORCA-job=T run=T Energy:=T 62.2358190=T energy=-23258.503493898836 pbc="F F F"
C        0.08451129       0.13435920      -0.41412128       0.02429858       0.01455759      -0.00139533
H        1.40545689       1.67285241      -0.78455369      -0.01334647      -0.03587589      -0.04325326
Cl      -1.51452812      -0.31788428       0.18380639      -0.02124086       0.02830451      -0.02219223
H        2.29942869      -0.96487593       1.85853123       0.01906162      -0.00249371      -0.00421675
C        0.38514506       1.59617184      -0.39763896       0.01680457       0.00134936      -0.02490685
H        1.85418764      -0.75375509       1.28937748      -0.04338540      -0.00090188      -0.00706994
N        0.59454070      -0.66121752      -1.40445763       0.01462804      -0.05965610       0.06510326
O        1.63455204      -0.27236388      -1.99852055      -0.04627483       0.00442720       0.06029509
O        0.08790488      -1.77149951      -1.65106229       0.06598149       0.08620783      -0.02357932
N        0.27086802       2.11504348       0.98777352       0.02584427      -0.04091072      -0.08183502
H        0.88921055       2.91429351       1.09506650      -0.00896454      -0.02959283      -0.02997846
H        0.61112323       1.39361308       1.61609228      -0.00851067       0.03865543      -0.01365684
N       -0.46174790       2.36742703      -1.31342201      -0.00854138       0.00913463       0.08327954
H       -0.17465456       3.34344760      -1.28073030      -0.00579679      -0.01476597       0.04787443
H       -1.40081731       2.34247457      -0.92480292      -0.01368037      -0.00343704      -0.00253078
