14
Properties=species:S:1:pos:R:3:forces:R:3 Coordinates=T from=T ORCA-job=T run=T Energy:=T 153.7071478=T energy=-21213.358279009222 pbc="F F F"
C        0.38266221      -0.10700942       0.07366438      -0.02938913       0.00561512       0.01043475
H        1.13578602       1.61618839      -0.96906380      -0.00707856      -0.03448071       0.00445859
F       -0.46994085       0.26099383      -1.96016599      -0.01167871      -0.00602735      -0.00173784
F        1.05683864      -0.36780014       1.26248607       0.02279777       0.01560018      -0.02107333
C        0.38552583       1.39184054      -0.21591688      -0.02059442      -0.01205882      -0.02235876
H       -0.60099059      -0.54789339       0.12792762      -0.03255485      -0.02058374      -0.03025868
N        1.17804253      -0.89256051      -0.93541399       0.02592286       0.00484889       0.01668192
O        2.18678621      -0.38573396      -1.37933480      -0.01835020      -0.00950191      -0.01195253
O        0.84486304      -2.04772644      -1.07696310       0.03697573       0.00044782      -0.01533033
N        0.83855325       2.15489146       1.04773788      -0.01283100       0.00953962      -0.01074691
O        1.88597789       2.75837380       0.96862772       0.00687140      -0.02654417       0.02212570
O        0.12075098       2.10805829       2.01843917      -0.00286200       0.02948498      -0.01073729
C       -0.91962815       1.91809871      -0.59731429       0.00722083       0.03465459       0.03332795
N       -1.88849962       2.54145657      -0.69422741       0.03561390      -0.02451563       0.01623109
