13
Properties=species:S:1:pos:R:3:forces:R:3 Coordinates=T from=T ORCA-job=T run=T Energy:=T 30.1780009=T energy=-11948.552150689635 pbc="F F F"
C        0.02103899      -0.04075606      -0.18632404      -0.00647270       0.00521706       0.01751052
H        1.71546448       1.20838087      -0.27442075      -0.00395210      -0.02264106      -0.00609017
F       -1.34769323      -0.01657430      -0.19014062       0.00818411       0.00650755      -0.00474019
H        2.57495640       0.62016832       2.03503329       0.00559914       0.00224225       0.00427203
C        0.63213977       1.32798060      -0.07804734      -0.00143510      -0.01258566       0.00112909
H        0.37821183      -0.71012269       0.59522240      -0.00356818      -0.00209444      -0.00743026
H        0.18901438       1.95748150      -0.85556803       0.01188502       0.01050685      -0.00698395
N        0.38822575      -0.70086701      -1.50701483      -0.01486317       0.03518672      -0.02852931
O        0.24563883      -0.04363756      -2.51869939      -0.01883729      -0.01356733       0.00303540
O        0.78187205      -1.84685386      -1.46836506       0.03626722      -0.01917827       0.00242659
N        0.36985982       1.81408587       1.26004121      -0.01478942       0.00398067       0.04695116
H        0.53694235       2.81667584       1.26281135      -0.00000973       0.00711319      -0.00767641
H        1.17547025       1.39941640       1.81341581       0.00034081       0.01200260      -0.00259667
