15
Properties=species:S:1:pos:R:3:forces:R:3 Coordinates=T from=T ORCA-job=T run=T Energy:=T 36.6063157=T energy=-26525.070313339682 pbc="F F F"
C        0.25450793      -0.04292263      -0.01575702      -0.00854247       0.00529319      -0.00615581
H        1.63188311       1.49517878      -0.10167504      -0.02707882      -0.00154977      -0.01118060
Cl      -1.60269461      -0.25694891      -0.12614067       0.01209349       0.01728166      -0.00211775
F        2.45983444      -0.37461578       0.21687440      -0.00386818       0.00808560      -0.00093166
C        0.54755593       1.44643932      -0.00405052      -0.01676074      -0.00619443       0.00230160
H        0.08484659       1.88373740      -0.89128949       0.00535673      -0.01752632      -0.00778054
N        0.72609272      -0.70539243      -1.31412661       0.02596896       0.00996189      -0.00874183
O        0.94953130       0.03373908      -2.24773266       0.00952822      -0.02603040      -0.00847309
O        0.72478956      -1.90844795      -1.35171180       0.00042197      -0.01736313       0.03107309
C        0.72207105      -0.78088236       1.15281011      -0.02711048       0.00284807      -0.00942718
N        0.66495591      -1.29375737       2.19424164       0.00510314       0.00521089      -0.02239328
C        0.07449006       2.14833580       1.25623157      -0.00397868       0.00573938       0.00467219
H       -1.01197663       2.10097723       1.36728113      -0.00992931      -0.01625848       0.00388159
H        0.52388909       1.70884410       2.14957021       0.02749489       0.00624130      -0.00543710
H        0.36083669       3.20337973       1.21092855       0.00918621       0.01148000       0.03755654
