14
Properties=species:S:1:pos:R:3:forces:R:3 Coordinates=T from=T ORCA-job=T run=T Energy:=T 45.1227495=T energy=-81535.87597461873 pbc="F F F"
C        0.20865914       0.04274012       0.06158481       0.03660006      -0.01472427      -0.02283161
H        1.86955140       1.22187495       0.05138568      -0.00551377      -0.01030350       0.00408909
Br      -1.82254412       0.17846723      -0.10984178       0.01674217      -0.01369923      -0.02673107
F        2.82392532      -0.33784809      -0.06169406      -0.01463964      -0.00831613      -0.02126138
C        0.78344244       1.42674091       0.02887964       0.00123138      -0.00042103       0.00672575
H        0.44468295       1.98209462       0.90721650      -0.00422933       0.00629766       0.00272731
H        0.49780982       1.95503423      -0.87920699       0.00862652       0.00434439       0.00135869
N        0.59462730      -0.73134686      -1.20964804      -0.00734360       0.00671354       0.02810077
O        0.78240903      -0.08419257      -2.21437177      -0.00764198       0.00103912       0.01262303
O        0.55113951      -1.93948105      -1.15502871       0.00443065       0.02562052       0.00579627
C        0.53760221      -0.75764459       1.28543969      -0.00266427       0.00494291       0.00083912
H        1.64104495      -0.81757577       1.22281716      -0.00856401       0.00494369      -0.00112260
H        0.19653360      -0.22129729       2.17465960      -0.01279915      -0.00192513       0.00404549
H        0.08445134      -1.74686261       1.24800393       0.00027990      -0.00063634       0.00307318
