16
Properties=species:S:1:pos:R:3:forces:R:3 Coordinates=T from=T ORCA-job=T run=T Energy:=T 54.3484958=T energy=-83042.40858018766 pbc="F F F"
C        0.09258574      -0.10754136      -0.08001249      -0.07582731       0.02648422       0.02137342
H        1.63808419       1.31589535      -0.37861196      -0.04780106      -0.02079993      -0.06073527
F       -1.27823070      -0.12351660       0.04237294      -0.10452566       0.00721933      -0.06653623
Br       3.78527469       1.02414381       1.99616603      -0.09548883       0.00987826      -0.04722487
C        0.56238821       1.31873900      -0.19044096       0.03460884       0.03798912       0.06905170
H        0.45393769       1.75424490       0.81346229      -0.01638732       0.00832823       0.00003454
N        0.37863628      -0.86873357      -1.39180633      -0.02685245      -0.09790847      -0.01502974
O        1.43971228      -0.65005334      -1.92430077      -0.02160028      -0.02187387       0.03993591
O       -0.44667826      -1.67748415      -1.76203235       0.09341722       0.21595561       0.08802731
C        0.70551793      -0.86732006       1.06356540       0.00541376      -0.00557328      -0.07345227
H        0.46550915      -1.92938176       0.96563095       0.09432580      -0.00876189       0.06434598
H        1.78366461      -0.67519745       1.11656687      -0.00173109      -0.11546908       0.05852290
H        0.26088567      -0.48788720       1.98830006       0.07683995      -0.03120250      -0.06655205
N       -0.15920537       2.01828687      -1.24454746       0.01127738      -0.03313260       0.08460299
H        0.28276959       2.91949355      -1.37826313      -0.11540248      -0.00203833      -0.06501316
H       -1.11680471       2.18285384      -0.94584532       0.18105227       0.02739622      -0.04547461
