19
Properties=species:S:1:pos:R:3:forces:R:3 Coordinates=T from=T ORCA-job=T run=T Energy:=T 108.5973366=T energy=-14085.919555695096 pbc="F F F"
C        0.09167624       0.00499214       0.02256579      -0.02523305       0.10662841       0.15215635
H        1.57683459       1.44872042      -0.31501679      -0.11595629      -0.04863555      -0.02991202
F       -1.28403921      -0.04397483      -0.30028382       0.05662413      -0.01117969      -0.02033169
H        2.65972552      -0.28274178       0.03522277      -0.08966648      -0.00666569      -0.10663979
C        0.52195765       1.48828853      -0.01582119      -0.04223155       0.08293895       0.04365871
N        0.74392962      -0.75051421      -1.13524965       0.08738470       0.05441893       0.12868446
O        0.88392789      -0.10714817      -2.18274431      -0.01982717      -0.09714926      -0.07290038
O        0.64276252      -1.97494705      -1.09922664       0.01172050       0.03860036      -0.06614668
C        0.24715684      -0.76810512       1.29597301       0.04184134      -0.05763574       0.05546517
H        1.31303467      -0.95492796       1.42590899       0.06492190       0.02819947       0.08511613
H       -0.15255625      -0.19365279       2.13508802      -0.02322867      -0.05791443      -0.01052754
H       -0.28516669      -1.71493405       1.20398528      -0.02899290      -0.01360675      -0.01092064
C        0.46827701       2.17699848       1.34453649       0.01527054      -0.02393814      -0.02533974
H       -0.51502001       2.09878332       1.83325339       0.08966661       0.01369812      -0.08924507
H        1.22746085       1.76333775       2.01757409      -0.09549186      -0.01987736      -0.02574839
H        0.68721978       3.24064320       1.19738609      -0.05095208      -0.09765381      -0.01597927
N       -0.22891665       2.26070116      -1.00237776       0.03244488       0.05819907      -0.01102460
H       -1.21984478       2.07874821      -0.86277123       0.08248210       0.02587159       0.04510167
H       -0.01117957       1.82520324      -1.89464078       0.00549047       0.02873940      -0.01632061
