15
Properties=species:S:1:pos:R:3:forces:R:3 Coordinates=T from=T ORCA-job=T run=T Energy:=T 51.2486704=T energy=-14021.589574048769 pbc="F F F"
C        0.27129462      -0.01097873       0.11686094       0.01012179      -0.02257119       0.00668155
H        1.81690319       1.48388559       0.19408043       0.00440769      -0.01269843       0.02093847
F       -1.07006644      -0.02324930      -0.15097145       0.03706481      -0.00743274      -0.00299934
H        1.98488520      -0.69151642      -0.77152855      -0.02923451      -0.01877541      -0.00826646
C        0.72442448       1.44088563       0.12128875       0.00964868      -0.00579142       0.01018176
H        0.46965378       1.79805962      -0.88458622      -0.03884113      -0.00592022       0.01520357
N        0.98381984      -0.68850241      -1.09263426      -0.02822657       0.00217971      -0.01967266
O        0.89203367       0.11534041      -2.15536687       0.01023003      -0.00125119       0.01415155
O        0.55729582      -1.93757595      -1.18893232       0.02188036       0.02042079       0.00554405
C        0.52273785      -0.80447965       1.36789137       0.00815091      -0.01509849       0.00990844
H        1.58992948      -0.80585450       1.61634232       0.00235846       0.00330544      -0.01106920
H       -0.03236258      -0.39681309       2.21739044      -0.01341546      -0.00207301      -0.00847125
H        0.21398442      -1.82683962       1.15019542      -0.00276437       0.00134885      -0.02382556
C        0.13976173       2.22094142       1.19158256       0.00305949       0.01534320      -0.01873513
N       -0.32096514       2.82382479       2.06232186      -0.00710410       0.04154351       0.00402965
