19
Properties=species:S:1:pos:R:3:forces:R:3 Coordinates=T from=T ORCA-job=T run=T Energy:=T 83.9632699=T energy=-16787.08374458751 pbc="F F F"
C       -0.03896014       0.00700297      -0.01215799      -0.00038259       0.00125372      -0.09152502
H        1.59523175       1.29079716      -0.22512237       0.05620290      -0.03537644      -0.04463829
F       -1.43632659       0.03614487      -0.15832560       0.06595144       0.04761042       0.07093971
F        2.84049279       0.33905771       1.13140317       0.00192085       0.03834030       0.06835242
C        0.51962516       1.43373903      -0.07468072       0.03530383      -0.03926023       0.03651512
N        0.34747677      -0.79621931      -1.30095727      -0.19459024       0.04150777      -0.02888235
O        0.85580578      -0.20590819      -2.22881709       0.20278400       0.09539975      -0.03876254
O        0.03226228      -1.96439049      -1.33868633       0.00080467      -0.03289148       0.15833534
C        0.38242349      -0.76949198       1.18983444      -0.02123758      -0.01104594      -0.05124626
H        1.50389714      -0.56830851       1.29941784      -0.22988622      -0.10498154      -0.05983669
H       -0.13675563      -0.33552538       2.04791222       0.05651861       0.01914661       0.04224092
H        0.06955756      -1.81149118       1.10713893       0.13307091      -0.05761704      -0.11107093
C        0.43694386       2.06152874       1.31734774      -0.04610498      -0.01493057      -0.03825893
H       -0.55030626       1.93413292       1.78565350       0.08349789       0.02382869      -0.00016681
H        1.23572211       1.58195987       1.90187532      -0.13884537       0.17407225      -0.09259218
H        0.62634551       3.13477779       1.22397955       0.06991576      -0.05262858      -0.01357278
N       -0.06218698       2.28670279      -1.10955617       0.00273395      -0.06824607       0.05464108
H       -1.06933525       2.16790252      -1.10411540      -0.06846656       0.02029465       0.04379485
H        0.25373573       1.95601761      -2.01431202       0.00624410      -0.06331815       0.09742285
