14
Properties=species:S:1:pos:R:3:forces:R:3 Coordinates=T from=T ORCA-job=T run=T Energy:=T 205.7919022=T energy=-84482.26213604034 pbc="F F F"
C        1.14483888      -0.04053300       0.19829701      -0.01918329      -0.00931897       0.15939350
H        1.02331595       1.85586747      -0.79774817       0.03328826       0.03378321      -0.05870440
Br      -2.71598984      -0.15397400       0.07310293       0.04785412       0.00027300      -0.02152476
F        2.45817599       0.03441418       0.62042538       0.04031598       0.04727115      -0.00873258
C        0.54638441       1.34442685       0.03625650       0.00216865      -0.05349549       0.03692582
H       -0.52976406       1.22475998      -0.17907624      -0.02721401       0.00573717      -0.00680852
N        1.39567071      -0.68823035      -1.23844307      -0.05919383       0.03676499       0.02662370
O        1.48129867       0.03743950      -2.20136616       0.01687531       0.01439049      -0.05156262
O        1.53156260      -1.89016947      -1.24331569      -0.02181205       0.02300341      -0.00594933
N        0.40566382      -0.84319673       1.02276140      -0.04640659      -0.14051281      -0.00082288
H        0.68725319      -1.81383294       0.97813692       0.03212609       0.03580486      -0.03557917
H       -0.60965804      -0.73941683       0.86305542      -0.04893342       0.00066206       0.03384435
C        0.71800498       2.11809715       1.25390649       0.04566423       0.00331935       0.03034032
N        0.86805291       2.74651260       2.20832235      -0.01989827       0.01187703      -0.09042624
