14
Properties=species:S:1:pos:R:3:forces:R:3 Coordinates=T from=T ORCA-job=T run=T Energy:=T 582.8404458=T energy=-84482.14410648753 pbc="F F F"
C        1.22931531      -0.00269206      -0.06452268      -0.07328614      -0.12416708      -0.21253609
H        1.02631303       1.93382718       0.66715213      -0.20113056      -0.02257654       0.04340302
Br      -2.33499229      -0.10464401       1.62931824       0.13469262       0.04759363      -0.05541263
F        2.59398590       0.16396327      -0.24554632       0.03021486       0.00300297       0.14914876
C        0.54123991       1.34481150      -0.11941201      -0.08781059       0.00505119      -0.07964993
H       -0.51798135       1.19846644       0.15817055       0.03367117       0.06949775       0.04220499
N        0.94093190      -0.87697256      -1.35540556       0.10705097      -0.14099576      -0.06852738
O        0.85878808      -0.32533800      -2.42279352      -0.10444690      -0.01241208      -0.06376665
O        0.91868547      -2.07378732      -1.17340217      -0.06414779      -0.10866795      -0.09802955
N        0.93024989      -0.71014291       1.07397944       0.10410459       0.07695132      -0.01155858
H        1.08492372      -1.69887261       0.90853333       0.07335360       0.04556971       0.12364833
H       -0.05081274      -0.57306663       1.36512245      -0.07316675       0.05349742       0.08966661
C        0.64694449       2.10390797      -1.35668342       0.12401282       0.04991298       0.08445796
N        0.71618027       2.80260552      -2.27037022      -0.02259039       0.04434379       0.05684707
