13
Properties=species:S:1:pos:R:3:forces:R:3 Coordinates=T from=T ORCA-job=T run=T Energy:=T 37.9466382=T energy=-14650.674451178338 pbc="F F F"
C        0.14528791       0.02252056       0.07244260       0.03461574      -0.01494042       0.02099241
H        1.83500748       1.29645180      -0.02133740       0.01264223       0.01345855       0.03263966
F       -1.28059136       0.14972354       0.04270522      -0.03727513       0.00003406      -0.04461720
F        3.03824068      -0.38174574       1.40636686       0.05159432       0.04573646       0.00409875
C        0.74991503       1.38955912      -0.06614139       0.01678193       0.03136740      -0.01224951
H        0.41175509       2.00171973       0.77261502       0.02107438      -0.02181504       0.03958235
H        0.44320031       1.85737581      -0.99902562      -0.00488970      -0.00466482      -0.05389509
N        0.24203091      -0.69420014      -1.48351324      -0.08516038      -0.06933119       0.07973645
O        0.23849361      -0.00431479      -2.48758113       0.02161998       0.05118734      -0.03084354
O        0.29306175      -1.90701539      -1.50273783      -0.00874962      -0.00534213       0.00068411
N        0.63424488      -0.75057929       1.01751996      -0.00006168      -0.02126795      -0.00013486
H        2.03648256      -0.59346359       1.27206581      -0.03903506       0.01045394      -0.00260556
H        0.21013938      -1.67064305       0.99230830      -0.00504261      -0.00765640      -0.03133526
