13
Properties=species:S:1:pos:R:3:forces:R:3 Coordinates=T from=T ORCA-job=T run=T Energy:=T 55.3340475=T energy=-24455.96471872385 pbc="F F F"
C        0.14089351       0.01453463       0.14607934      -0.00402740      -0.00805090      -0.00556985
H        0.67657044       1.89280016       0.92286030      -0.01936829       0.00500816      -0.01073073
F       -1.21562467       0.12922352       0.45297690      -0.00889577      -0.01217081       0.01158360
Cl       3.88326716      -0.23579506       0.49736030       0.01116891      -0.01915188       0.02974013
C        0.75322251       1.36665008      -0.02990008       0.01100499       0.01107588      -0.02062470
H        0.23026856       1.91626706      -0.80901292      -0.02184972       0.03871373      -0.00143678
H        1.81197579       1.25676405      -0.27633877       0.03382097       0.01758004      -0.00906224
N       -0.01012260      -0.69907682      -1.27814000      -0.02030647       0.00602610       0.00353461
O       -0.08227163      -0.00964538      -2.26929690      -0.01163612      -0.01866126      -0.03360536
O       -0.09186694      -1.90841808      -1.26031410       0.00031228       0.01923428      -0.01312871
N        0.78407101      -0.79232027       1.04889087      -0.00509073      -0.00343012       0.04025302
H        1.81131221      -0.68242504       0.99655787       0.01753980      -0.00563675       0.00361931
H        0.51805041      -1.76151083       0.93545981       0.01153246      -0.02073145      -0.00281028
