16
Properties=species:S:1:pos:R:3:forces:R:3 Coordinates=T from=T ORCA-job=T run=T Energy:=T 52.4167572=T energy=-25524.484111061804 pbc="F F F"
C        0.09091645      -0.05605549       0.06855391      -0.01669936       0.03096642       0.01128739
H        1.73776813       1.23045733      -0.25252987       0.01372536       0.03236169      -0.00812418
F       -1.29232048       0.01384701       0.24179024      -0.08882070      -0.01954128      -0.04652045
Cl       3.77318058       0.07162221       1.04980780       0.02497537      -0.01363797      -0.00098584
C        0.64760540       1.32200162      -0.20221287       0.01096237       0.03655821      -0.03586468
H        0.43443998       1.85102951       0.73431844       0.08640601      -0.03090811      -0.03718986
N        0.10045429      -1.01575717      -1.21585024       0.06977616      -0.07164971       0.04010357
O        0.10675847      -0.53908552      -2.32798309       0.00402111      -0.03529712       0.03297228
O        0.05984938      -2.20369436      -0.97483952      -0.01840102       0.02390836      -0.02637592
N        0.68466586      -0.66913790       1.14463001       0.04979951       0.06158934      -0.10380576
H        1.70450961      -0.48200793       1.19217139      -0.05957029      -0.00484164       0.04932392
H        0.49535235      -1.66208994       1.15589832      -0.00104980      -0.03015775       0.01373879
C        0.07565931       2.12163666      -1.36677610      -0.01604445      -0.01026259       0.02387124
H        0.47255606       1.79837017      -2.32867135      -0.00201675      -0.00239944       0.06823700
H       -1.01374196       2.02816643      -1.41199842       0.01499967       0.07811495       0.01428249
H        0.32868951       3.18007889      -1.23275033      -0.06603043      -0.06083174       0.00646281
