15
Properties=species:S:1:pos:R:3:forces:R:3 Coordinates=T from=T ORCA-job=T run=T Energy:=T 32.6073625=T energy=-87534.51012355117 pbc="F F F"
C        1.19171902      -0.13747839       0.08850940      -0.01926448      -0.01449794       0.11127697
H        2.07897315       1.75900616       0.32654617       0.01314115       0.00497864      -0.03699256
Br      -2.37893372      -0.18695937       0.45287689      -0.08541132       0.07051041      -0.00445769
F        2.54119384      -0.42240470      -0.09800063       0.01073519       0.03484880      -0.02170853
C        1.06926160       1.38132424       0.15620478       0.01423258       0.01348741      -0.05657223
H        0.69580188       1.77168492      -0.78227036      -0.02649047      -0.01781152      -0.06769401
N        0.66946358      -0.62812405      -1.36466685      -0.06887652       0.00410394       0.04105633
O        0.57935086       0.16543022      -2.27244805       0.07022737      -0.00381767       0.04985472
O        0.48406926      -1.81701143      -1.44115528       0.05277747      -0.02146788      -0.07866061
N        0.68623599      -0.90653550       1.09886643      -0.14657113       0.05018813       0.05173488
H       -0.31491112      -0.66805292       1.25510417       0.17788745      -0.02306895      -0.03041449
H        0.72067859      -1.88006464       0.80780186       0.00806464       0.06914449       0.02005073
N        0.26378973       2.06612441       1.22419806      -0.08978439      -0.07138150       0.00004164
O       -0.23599284       3.11312199       0.87221809       0.02771779      -0.02013638       0.02820117
O        0.27096718       1.63031814       2.34760173       0.07346487      -0.06930154      -0.00532926
