16
Properties=species:S:1:pos:R:3:forces:R:3 Coordinates=T from=T ORCA-job=T run=T Energy:=T 71.3175041=T energy=-83042.2520191082 pbc="F F F"
C        0.43397122      -0.10934773      -0.03876274      -0.04243835       0.03794031      -0.08437112
H        1.60608080       1.60327772      -0.28538472      -0.10064473       0.00762194       0.00215326
Br      -2.51880957       0.21010411      -0.32381335      -0.01644546      -0.03835790       0.04064825
F        3.26831845      -0.31155412       1.59653495       0.03499245       0.11726085       0.12207713
C        0.54508474       1.38044780      -0.08489793       0.00363098      -0.00665115      -0.01026536
H       -0.05185458       1.74828865      -0.92022218       0.09504353      -0.03088571       0.04673472
N        0.20032643      -0.81925519      -1.36432788       0.02877680      -0.10090666      -0.00182212
O        0.38901567      -0.16888943      -2.36750280      -0.06759653       0.07414543      -0.01080775
O        0.01082944      -2.01664282      -1.32706444       0.04774739       0.07462469       0.02927822
N        0.84102026      -0.82550997       0.91907617      -0.09847583      -0.03767965       0.05871564
H        2.32100980      -0.41957333       1.54054498      -0.02140030      -0.07416525      -0.04405741
H        0.74102443      -1.81712401       0.70451168      -0.03964138       0.04012691      -0.07769530
C        0.09852924       2.02127202       1.22491700       0.02288902      -0.00442250      -0.03029654
H       -0.97375536       1.85665693       1.35603415       0.05863737      -0.09581890       0.00314061
H        0.63642038       1.59410841       2.07522418      -0.00031931       0.04265586      -0.00664166
H        0.27524015       3.10114615       1.20832834       0.09090987      -0.00961340      -0.04053985
