16
Properties=species:S:1:pos:R:3:forces:R:3 Coordinates=T from=T ORCA-job=T run=T Energy:=T 235.9587646=T energy=-28467.267051388364 pbc="F F F"
C        0.16913229      -0.11344653      -0.14615266      -0.18626642       0.28183751       0.18754635
H        1.53502739       1.36321033      -0.84429199      -0.10550950       0.05482795       0.05607004
Cl      -1.74338966      -0.38465774      -0.52633531      -0.07738086       0.15244953       0.11778680
F        2.47244241       0.24691802       2.08991517       0.10238924       0.01107018      -0.01961157
C        0.59342588       1.39547621      -0.28050686      -0.01745328       0.05395139       0.07752801
N        0.66166244      -0.87331175      -1.42714013       0.16096499       0.01241807      -0.01893484
O        0.91428244      -0.20590337      -2.40763482      -0.01330815      -0.15171054      -0.11307522
O        0.80341220      -2.06761594      -1.32931016       0.02485117      -0.12146818      -0.05181548
N        0.51565174      -0.64575994       1.01690342      -0.03026749      -0.15407525      -0.19055257
H        1.49887035      -0.27724134       1.55655592       0.06380971       0.19890795       0.18970402
H        0.35777581      -1.63924417       1.06492174      -0.01208967      -0.20843738      -0.14879871
N        0.85132550       2.09341335       0.95260021      -0.03651681       0.01951449      -0.02424057
H        1.52828147       1.55130449       1.50785170       0.16198048       0.06806237      -0.05528353
H        0.00130396       2.14442711       1.49289377      -0.22417651      -0.03592317       0.12572184
C       -0.35188694       2.19708432      -1.07096858      -0.13742768       0.06351431      -0.41333838
N       -1.07359170       2.87538463      -1.66685675       0.34792901      -0.21715715       0.27765291
