18
Properties=species:S:1:pos:R:3:forces:R:3 Coordinates=T from=T ORCA-job=T run=T Energy:=T 170.8694038=T energy=-31084.07005100684 pbc="F F F"
C        0.16089264      -0.12903775      -0.10435696      -0.07801587       0.10111985      -0.04491621
H        1.50387262       1.40342862      -0.67792357      -0.11468141       0.06470228      -0.01926845
Cl      -2.04874237      -0.25930005      -0.81797215       0.01615276      -0.00209782       0.08097024
F        2.69407565      -0.16753731       1.95408330      -0.08032043       0.00576580       0.00643548
C        0.51141719       1.35387530      -0.21952685      -0.06577598       0.10750120       0.02248190
N        0.55910686      -0.98648739      -1.32623062       0.12351034      -0.06610027       0.12941638
O        1.06954946      -0.43219383      -2.27129286      -0.08638708       0.03149504       0.03875462
O        0.44411989      -2.18403481      -1.18985093       0.02000593       0.01201732      -0.07493689
N        0.33859801      -0.68818381       1.03968062       0.07356472      -0.07923462      -0.17249005
H        1.78159913      -0.36892156       1.69165724       0.05371659       0.04213720       0.08653524
H        0.27566754      -1.69656269       0.91427085      -0.05494290      -0.05054576       0.01097621
C        0.47644231       2.04200196       1.13344629       0.00014920       0.02130842      -0.02702678
H       -0.51204046       1.93099776       1.58063526       0.09245417      -0.03337783       0.02038514
H        1.23364433       1.61350631       1.78972151      -0.06146951       0.01075348      -0.07675944
H        0.67518839       3.11034863       1.00720640       0.04345248      -0.06438294       0.01163729
N       -0.37537842       2.17211469      -1.16852560      -0.05860096      -0.03857038       0.00175817
O       -1.28037716       2.80202607      -0.66980968       0.08993840      -0.01513589      -0.01825107
O       -0.07276754       2.20200303      -2.33813360       0.08777652      -0.03954380       0.02725711
