14
Properties=species:S:1:pos:R:3:forces:R:3 Coordinates=T from=T ORCA-job=T run=T Energy:=T 74.8374753=T energy=-22905.622854671426 pbc="F F F"
C        0.78086342       0.01620248      -0.11237292      -0.00778094      -0.00657303       0.00907225
H        1.72337918       1.91101879      -0.59101863       0.03775492       0.00573181      -0.01338378
F       -1.81328417       0.00743787       0.00998604       0.00027519      -0.00047073      -0.00329034
Cl       1.95449638      -0.61385823       1.13682363      -0.01524370       0.00177778      -0.00158139
C        0.77672013       1.55345648      -0.14668369       0.00289599       0.02547193       0.00448026
H       -0.31396546      -0.26079954       0.14132104       0.01399299      -0.00761292      -0.00121468
C        1.16846680      -0.55214031      -1.38260457      -0.02884434      -0.00838467      -0.02311008
N        1.47415368      -1.03895766      -2.38447309       0.01688340       0.01077533      -0.00081053
N        0.60946496       2.05705174       1.22178825      -0.00141176       0.02044223       0.02730869
H        0.36999714       3.03946046       1.15545861      -0.00087635       0.02289128       0.01301317
H        1.48663998       1.99275458       1.72784456       0.02175414      -0.00283259       0.00353163
N       -0.31502955       1.89112859      -1.01168413      -0.00656997      -0.01690875      -0.01060676
H       -0.48511524       2.89038464      -0.99813498      -0.00652828      -0.01883321      -0.00046517
H       -1.14186690       1.34524284      -0.66552503      -0.01525473      -0.00884276      -0.00694906
