13
Properties=species:S:1:pos:R:3:forces:R:3 Coordinates=T from=T ORCA-job=T run=T Energy:=T 105.1415797=T energy=-91232.53777328324 pbc="F F F"
C        0.15664631      -0.07836459      -0.22024620       0.00447634      -0.04078405       0.00129106
H        1.58742998       1.43159027      -0.45748010      -0.00435537      -0.00843205      -0.02961334
Cl      -1.56650112      -0.38766627       0.18455710       0.00865138      -0.01769185       0.00065415
Br       3.06350766       0.16923112       1.73382144      -0.01152621      -0.00745513       0.00497312
C        0.51641279       1.41669985      -0.18804949       0.00341237      -0.01238685       0.00236309
H        0.77858401      -0.54215560       0.55763127       0.00796804       0.01030277       0.00319227
C        0.45829308      -0.68902678      -1.50406403      -0.00597310       0.01968327       0.01577587
N        0.70224019      -1.16214868      -2.52549267       0.00794110      -0.02325587      -0.02275379
N        0.27579799       1.93587897       1.14374148       0.00860191       0.00894033      -0.00599617
H        0.43076738       2.93753072       1.12810298       0.01274909       0.01041863       0.02626432
H        1.02924574       1.53440736       1.71735841      -0.02927487       0.02261521      -0.01265339
C       -0.22179180       2.17876160      -1.19617269       0.02144475       0.00646589       0.04051429
N       -0.76995796       2.81022036      -1.98852433      -0.02175761       0.02819215      -0.01861565
