15
Properties=species:S:1:pos:R:3:forces:R:3 Coordinates=T from=T ORCA-job=T run=T Energy:=T 194.1022897=T energy=-26525.401274260315 pbc="F F F"
C        0.86824148      -0.03541168      -0.02595985      -0.02178486       0.03221886      -0.01027390
H        1.72814504       1.91955789       0.16009793      -0.00688397       0.00577057      -0.00224454
F       -1.31287415       0.17524017       0.10533855      -0.00959705      -0.00861733      -0.01140794
Cl       2.75489060      -0.43647173      -0.06174450      -0.02684755       0.01792779      -0.01542853
C        0.74089458       1.48851183      -0.04357645      -0.01190215       0.00993247       0.01936597
H        0.55509464      -0.45743878       0.91732301       0.02468778       0.00094227      -0.02592747
C        0.31785995      -0.73655362      -1.16870453      -0.00669666      -0.02676249       0.03734313
N        0.08673001      -1.33119305      -2.13241618      -0.00455859       0.00000321       0.01387491
N       -0.04278782       1.92211757       1.18499238      -0.02013374      -0.01991728      -0.01556184
O       -0.76352887       2.88872625       1.08297712       0.02959060       0.00982377      -0.01513707
O        0.23195930       1.37365283       2.23165656       0.00458328      -0.00171409      -0.01756969
C        0.15307143       2.06606354      -1.30798740       0.02149266      -0.01171804       0.02609140
H        0.76661203       1.75998260      -2.16055927      -0.01284618       0.01589191       0.00727334
H       -0.85389748       1.66050906      -1.40874462       0.02877458       0.01861327       0.00357380
H        0.12558526       3.15589918      -1.26164261       0.00650398      -0.03169908       0.01377867
