14
Properties=species:S:1:pos:R:3:forces:R:3 Coordinates=T from=T ORCA-job=T run=T Energy:=T 85.9606908=T energy=-32710.902183284146 pbc="F F F"
C        0.84676152       0.01576357      -0.08504334      -0.00689516      -0.00002518      -0.02259130
H        1.73341466       1.90859691      -0.58327037      -0.02281096       0.00661090       0.01114590
Cl      -2.59694060      -0.15414725       0.11498717       0.00073982       0.00669748       0.00364455
Cl       2.06980575      -0.56477876       1.12586175      -0.00132727      -0.01304188      -0.00349976
C        0.79067457       1.55175324      -0.12955377       0.01420273      -0.02101578      -0.00544352
H       -0.14061771      -0.35637832       0.23255334      -0.00448436      -0.01397375       0.00871176
C        1.22281923      -0.53314363      -1.37595765       0.00721045      -0.01091703      -0.00803869
N        1.57586972      -0.97362517      -2.38057699      -0.00846339      -0.00937793      -0.01635037
N        0.60270049       2.05434576       1.22860045       0.00934282       0.00393361      -0.03776945
H        0.36910347       3.03759986       1.16910312      -0.02178323       0.01488704       0.03701523
H        1.46278002       1.96707864       1.75918798      -0.01391081       0.04398961       0.01184513
N       -0.28172373       1.85618839      -1.02627506       0.01516725       0.00890415      -0.01071303
H       -0.37974526       2.85288016      -1.16654911       0.00077406       0.01276641       0.00065691
H       -1.16620297       1.45510949      -0.68840064       0.02815933      -0.01149520       0.02152295
