15
Properties=species:S:1:pos:R:3:forces:R:3 Coordinates=T from=T ORCA-job=T run=T Energy:=T 82.2292668=T energy=-22469.464899270948 pbc="F F F"
C        0.35730279      -0.03811794      -0.23389863      -0.00927048      -0.01873098      -0.04952272
H        1.55873063       1.61868139      -0.46782320       0.00683361      -0.00690585      -0.03197127
Cl      -1.36133783      -0.54028152       0.18823750       0.00326870       0.01390184       0.00130714
F        1.96291646      -0.32981001       1.68977504      -0.02676621       0.01925615       0.01143681
C        0.49619967       1.47473494      -0.23203863      -0.01164279       0.02463787      -0.03205852
H        1.11688972      -0.37733572       0.69405858      -0.01085483      -0.02030456       0.01688445
C        0.68948185      -0.63795095      -1.49625901       0.01183804      -0.04871461       0.06923619
N        1.02127080      -1.16759087      -2.47090485      -0.00188185       0.02362477      -0.01367935
C        0.26890770       2.04594385       1.16169094       0.00989549       0.03054295       0.01212165
H       -0.78397524       1.96391336       1.45455375       0.02554508      -0.02960528      -0.00142546
H        0.89445074       1.48440184       1.86248174      -0.00581381      -0.01002866      -0.00537481
H        0.53814902       3.10885796       1.16345969       0.02689313       0.02503488       0.08249687
N       -0.28447465       2.10802893      -1.29491420      -0.03291067       0.01403814      -0.06323302
H       -0.14913032       3.11282601      -1.24933766       0.01857058       0.02332561       0.03814227
H       -1.26808748       1.95186761      -1.09520060      -0.02004344      -0.04371389      -0.01802533
