14
Properties=species:S:1:pos:R:3:forces:R:3 Coordinates=T from=T ORCA-job=T run=T Energy:=T 98.8591431=T energy=-36766.96469777244 pbc="F F F"
C        0.11150352      -0.08848619      -0.11987317      -0.00100377      -0.00825809       0.00393719
H        1.62411357       1.34023873      -0.05991976      -0.02788732       0.00830493      -0.00842721
Cl      -1.68347192      -0.28197791       0.14388824      -0.00233656       0.01332577      -0.03347786
Cl       3.32882003       0.08216947       0.61297202       0.03785666       0.00746846      -0.02304912
C        0.51406771       1.37696934      -0.12698464      -0.01525735      -0.01255392       0.03398384
H        0.62140376      -0.58126255       0.70867617      -0.01803752      -0.00253441      -0.00185978
C        0.44033874      -0.74194699      -1.37597420       0.00275794      -0.02496870       0.03323238
N        0.63091579      -1.30208704      -2.36367638       0.00934423       0.01804616       0.01179480
N        0.10142300       1.99087747       1.22865195      -0.00578058       0.00249063      -0.00632299
O       -0.25881792       3.15257646       1.20245272       0.01679652      -0.00359981      -0.00557587
O        0.20372060       1.31156442       2.22040751      -0.00441247      -0.01009512      -0.01217897
N        0.03598968       2.10430512      -1.23413090       0.00409102      -0.00444849       0.04214805
H        0.46895261       3.01571461      -1.27244836      -0.01660354      -0.01337086      -0.00370112
H       -0.96840849       2.22942714      -1.18697783       0.01613881       0.02357804      -0.02295143
