15
Properties=species:S:1:pos:R:3:forces:R:3 Coordinates=T from=T ORCA-job=T run=T Energy:=T 191.7269025=T energy=-36330.612868123644 pbc="F F F"
C        0.86193705      -0.03348001      -0.06155746       0.00617800      -0.01628597       0.08373118
H        1.82716688       1.88894153      -0.32051794       0.02003180      -0.02370537      -0.03119820
Cl      -2.37919639      -0.21321241       0.38857180       0.02571521      -0.04881326      -0.01281726
Cl       2.24124420      -0.64471533       0.94424536      -0.04951035       0.06356144       0.00682696
C        0.82561277       1.48762428      -0.14116087       0.02594476       0.04583348       0.02229562
H       -0.10212338      -0.38065310       0.36934610       0.02789943      -0.05221851      -0.01843254
C        1.05036530      -0.60225541      -1.38567731      -0.03929692      -0.07082303       0.06146067
N        1.23394529      -1.07174537      -2.42195336      -0.00832784       0.04602202      -0.04564618
N        0.47049626       2.10567301       1.20853691       0.05013089       0.02397344       0.01796314
O        0.36931179       3.31763105       1.20076622       0.01580741      -0.00981531       0.02301625
O        0.38038031       1.40458903       2.18146216      -0.03320511      -0.04672738      -0.07892293
C       -0.15666607       1.97726797      -1.19092475      -0.02187855       0.04318430      -0.00892244
H        0.25255739       1.82512496      -2.18973937       0.05751355      -0.04484713      -0.03548075
H       -1.10157917       1.43563919      -1.09705539      -0.05460546       0.01514250       0.06225147
H       -0.32483093       3.04108797      -1.04003791      -0.01361638       0.07598702      -0.03549357
