12
Properties=species:S:1:pos:R:3:forces:R:3 Coordinates=T from=T ORCA-job=T run=T Energy:=T 33.4877678=T energy=-78919.32426544777 pbc="F F F"
C        0.30391138      -0.01303757      -0.20975855       0.04229048       0.01641435       0.00352905
H        1.51170960       1.62641259      -0.57948889      -0.01935721       0.03068518      -0.00633971
Br      -1.53490133      -0.55629967       0.28149492      -0.01355357       0.00662692      -0.01118530
F        1.99790405       0.00964853       1.73967834      -0.00294885       0.00353471       0.00627744
C        0.48377083       1.49925267      -0.19047026      -0.00976876      -0.02019020      -0.03900267
H        1.02258525      -0.34846077       0.63597581      -0.01481203      -0.01154710       0.03002172
H       -0.20356914       1.99691032      -0.88667852      -0.02855405      -0.00429798      -0.00468702
C        0.60950094      -0.59285140      -1.49004274      -0.00658400       0.03123321       0.03842445
N        0.90027153      -1.04813527      -2.51260882       0.00095349      -0.01574886      -0.03616802
N        0.31456804       1.98501833       1.16294952       0.01845684      -0.01725511      -0.03810875
H        0.63396277       2.94706996       1.19734670       0.02667683      -0.00015856       0.02004486
H        0.98324163       1.39969574       1.70223232       0.00478947      -0.00428157       0.03250972
