12
Properties=species:S:1:pos:R:3:forces:R:3 Coordinates=T from=T ORCA-job=T run=T Energy:=T 131.7775315=T energy=-88724.775868199 pbc="F F F"
C        1.00152056      -0.05069288      -0.25526556      -0.03645516      -0.04173132       0.01332091
H        1.80843143       1.91834561      -0.56615359       0.05143632       0.02225319       0.01416655
Br      -2.26422047       0.47538978       1.18215340       0.00655230      -0.01355621       0.00694875
Cl       2.28250669      -0.58347457       0.90864598       0.02705243       0.01362180       0.01401036
C        0.86676343       1.46871629      -0.23775208       0.01154494      -0.01763881      -0.00482807
H        0.05792245      -0.46710139       0.12182512      -0.01871116      -0.01915246      -0.02170587
H        0.68331950       1.73965129       0.81199971      -0.00727958       0.02716929      -0.02695007
C        1.32898845      -0.59032524      -1.56559440      -0.01306410       0.05966190       0.02606920
N        1.62637074      -1.03031277      -2.58841855      -0.00394981      -0.01543326      -0.02970152
N       -0.20132643       1.82128287      -1.14960076      -0.02331492       0.04026244       0.02926381
H       -0.23516129       2.83080392      -1.24574767       0.01548749      -0.06341404      -0.00837181
H       -1.07591469       1.54089003      -0.69228269       0.00494477       0.01077593      -0.02662364
