14
Properties=species:S:1:pos:R:3:forces:R:3 Coordinates=T from=T ORCA-job=T run=T Energy:=T 86.7107988=T energy=-90229.28722408605 pbc="F F F"
C        0.86028431       0.02057453      -0.11379417      -0.01066909      -0.00232458      -0.02418192
H        1.71777725       1.93166585      -0.59726990      -0.02568800       0.00677207       0.01411253
Cl      -2.57226711      -0.17117469       0.18073264       0.00201225       0.00246918      -0.00413696
Br       2.22434817      -0.62276298       1.16866654      -0.00099176       0.00147623      -0.00442136
C        0.78618394       1.55672506      -0.13595632       0.00251267      -0.01547579      -0.00619523
H       -0.11054462      -0.37363123       0.22813538       0.00433263      -0.00623150       0.00185488
C        1.22302975      -0.50808403      -1.41276080       0.00007543      -0.00839264      -0.01570421
N        1.55779530      -0.92355943      -2.43475591       0.00092350      -0.02252334      -0.00669776
N        0.59679372       2.04750308       1.22434687       0.00107935       0.00210476      -0.01227885
H        0.31306996       3.01784155       1.17387188      -0.00971470       0.00164655       0.03817796
H        1.46173507       1.99300844       1.75064971      -0.00218621       0.04334515      -0.00293849
N       -0.29991432       1.85077624      -1.02078464       0.01885566      -0.00498050      -0.02703835
H       -0.40047848       2.84543788      -1.17294197      -0.02015018       0.00756871       0.01030841
H       -1.17743944       1.44370572      -0.67145334       0.03908802       0.01781708       0.02311259
