14
Properties=species:S:1:pos:R:3:forces:R:3 Coordinates=T from=T ORCA-job=T run=T Energy:=T 83.7694203=T energy=-23472.95350951944 pbc="F F F"
C        0.09769069      -0.05766087      -0.01065284       0.05698871      -0.28185665       0.34472862
H        2.07185849       1.11895741      -0.19398663       0.09151945      -0.06410153       0.03333552
Cl      -2.31521388      -0.59323980      -0.04778085       0.12623659      -0.07585033      -0.04677610
F        3.00646658       1.13558984      -0.31532569       0.19459332       0.06096328      -0.06740442
C        0.26190610       1.31221165      -0.03508760      -0.12264181      -0.13686619       0.01657651
H        0.16925211      -0.57116480       0.95003813      -0.05569363       0.17672681      -0.21388817
C        0.47591427      -0.90515386      -1.10292251       0.00583880       0.31876245       0.14863102
N        0.97672671      -1.58479931      -1.89065284      -0.20161521      -0.06065470      -0.18031035
C        0.32265529       1.95090807       1.23226744      -0.14338211      -0.26489282      -0.23692167
N        0.43701466       2.40671200       2.28909541      -0.01126420       0.28620922       0.18929250
C       -0.01031911       2.12525927      -1.26591649      -0.05595967      -0.01232878      -0.06051777
H        0.39324238       1.65083232      -2.16455669       0.10250480      -0.02686520       0.06806072
H       -1.09677327       2.18200032      -1.40583652      -0.00368235       0.09523166       0.01870573
H        0.39657272       3.13515588      -1.18842350       0.01610156      -0.01739660      -0.01241852
