12
Properties=species:S:1:pos:R:3:forces:R:3 Coordinates=T from=T ORCA-job=T run=T Energy:=T 31.2096232=T energy=-92780.63230890731 pbc="F F F"
C        0.30011509      -0.07848270      -0.24267687      -0.02216585      -0.02867703      -0.00525749
H        1.78137931       1.34179187      -0.79769170       0.01139091       0.04011339      -0.01347153
Cl      -1.34645312      -0.14277656       0.49382637       0.00365675      -0.01050503       0.01026885
Br       3.05886996      -0.05076523       1.65847894       0.00179664      -0.01700235       0.00379102
C        0.78352710       1.34894255      -0.35725384      -0.00450101      -0.01736343       0.01631424
H        1.01247321      -0.52465655       0.48262135       0.00117816       0.00859858      -0.02486446
H        0.84211476       1.78957174       0.63260431      -0.00673335       0.03487407       0.01380422
C        0.29796748      -0.84511439      -1.47541732      -0.01629303       0.00695698      -0.00439896
N        0.31077404      -1.50164610      -2.42228101       0.02203529      -0.01739159       0.01690016
N       -0.09668355       2.20622244      -1.20823866      -0.02332341      -0.01206330       0.01289894
O       -0.55725263       3.20778201      -0.70330740       0.03977230      -0.01253710      -0.00368047
O       -0.27895185       1.84938532      -2.35287037      -0.00257500       0.01662122      -0.03639593
