12
Properties=species:S:1:pos:R:3:forces:R:3 Coordinates=T from=T ORCA-job=T run=T Energy:=T 62.9283036=T energy=-92780.54821799096 pbc="F F F"
C        0.95016382      -0.07177615       0.04206000      -0.00037209      -0.03486779      -0.02004642
H        1.15592575       1.97636180      -0.68903655      -0.01507234       0.03151309      -0.00487948
Br      -2.43465247      -0.14871450      -0.39464001       0.01583613       0.00717178      -0.01154487
Cl       2.58059066      -0.26174768       0.82159668      -0.00645223       0.00984647       0.02347247
C        0.52219035       1.37533528      -0.04250555      -0.01605188      -0.01591688      -0.01328933
H        0.22162774      -0.63138583       0.62988753       0.00176057       0.00114996       0.05344941
H       -0.53271754       1.32995390      -0.39278666       0.01587748       0.06631900       0.02581027
C        1.04255118      -0.62519460      -1.29978095       0.00794413       0.02582193      -0.04056542
N        1.19860023      -1.02224574      -2.36945751       0.00862236      -0.04291788       0.00043925
N        0.48372030       2.04538548       1.28046186      -0.03551316       0.06512274      -0.00032972
O        0.68415731       3.24703676       1.28079291      -0.01419015      -0.15014479       0.01565768
O        0.20327303       1.37676324       2.24935716       0.04972155       0.03216105      -0.02500819
