15
Properties=species:S:1:pos:R:3:forces:R:3 Coordinates=T from=T ORCA-job=T run=T Energy:=T 78.2305082=T energy=-147311.871374598 pbc="F F F"
C        0.22829243      -0.07872881      -0.24768675      -0.05306339      -0.04480297      -0.01157895
H        1.61836188       1.42875138      -0.50813938       0.06228226      -0.02033777      -0.10958743
Br      -1.67329243      -0.46713999       0.13343708      -0.04059428       0.00413100       0.05648239
Br       3.06102818       0.07487082       1.95515365      -0.00971652      -0.02960155       0.00278149
C        0.54897166       1.41940415      -0.24082143       0.02338999      -0.00805885       0.07508980
H        0.80063494      -0.55190453       0.56217464       0.00855384       0.06318642      -0.00538443
C        0.54629909      -0.74630424      -1.49578339       0.05367213       0.00265184       0.06105821
N        0.81182879      -1.30218479      -2.47087403      -0.01513931       0.07951898      -0.05955359
N        0.34264006       1.92150227       1.10265310      -0.03635554       0.03211568       0.07194323
H        0.59786808       2.90393176       1.10834908      -0.02316755       0.00137090      -0.00080207
H        1.03277304       1.45993756       1.70658949      -0.00650458       0.00467161      -0.05177541
C       -0.24707325       2.24119335      -1.23938464       0.03951097      -0.02238166      -0.00167020
H       -0.23879282       1.80124793      -2.24053610      -0.01146421      -0.03511876       0.00540002
H       -1.28082739       2.34184296      -0.89436564       0.04802265      -0.03012708      -0.06541325
H        0.18798264       3.24333847      -1.32086983      -0.03442998       0.00279000       0.03321820
