13
Properties=species:S:1:pos:R:3:forces:R:3 Coordinates=T from=T ORCA-job=T run=T Energy:=T 76.9288846=T energy=-78484.52707965454 pbc="F F F"
C        1.00460260      -0.01841799      -0.00107982       0.01726551      -0.20730810       0.07904772
H        1.45522316       1.99865615      -0.58614602       0.00328275       0.01089777       0.04220984
Br      -2.47405009      -0.34015543       0.04208392      -0.03777047      -0.00547196       0.03690895
F        2.05530695      -0.21967606       0.90446997      -0.04177644       0.07016422      -0.07881929
C        0.64026483       1.44550076      -0.10343721      -0.07223399       0.12976948       0.00800764
H        0.12148887      -0.58020118       0.34206437       0.04564323       0.05809305      -0.01089477
H       -0.24181217       1.47652979      -0.75188249       0.03857988       0.02118207      -0.04764082
C        1.43441031      -0.56600477      -1.29307290      -0.02178943       0.01577097      -0.04496441
N        1.77264042      -0.98275147      -2.31343758       0.03163670       0.02614431       0.07526392
C        0.25968089       2.04495314       1.24396190      -0.00836978      -0.03136512      -0.02185539
H       -0.61357970       1.51780450       1.63745897       0.02248508      -0.03975147       0.00580337
H        1.07662912       1.99339051       1.97071147      -0.00787555      -0.03331037      -0.05228669
H       -0.02479462       3.09543681       1.12436403       0.04976503      -0.01189775      -0.01723006
