12
Properties=species:S:1:pos:R:3:forces:R:3 Coordinates=T from=T ORCA-job=T run=T Energy:=T 29.2871368=T energy=-18700.480124771388 pbc="F F F"
C        0.60456376      -0.00313033       0.17905515       0.01585261      -0.02779572      -0.02523244
H        1.79186686       1.64795858      -0.15255218      -0.01763327       0.00805537       0.00648301
Cl      -1.28992176      -0.37144798       0.46616691       0.03385736       0.01460452      -0.00961882
H        0.42855661      -1.35387203      -1.61083007       0.01977450       0.00665311       0.02909080
C        0.73146689       1.49544378       0.06367814      -0.01658055      -0.00889077      -0.00103273
H        1.03876154      -0.35175641       1.11855658      -0.03665892      -0.01093042      -0.00574474
H        0.15951456       1.81704894      -0.82337246      -0.01664700       0.02893413      -0.01253907
C        1.19480375      -0.73749696      -1.04297863      -0.00325511       0.00471044      -0.02210643
N        2.39553623      -0.56180222      -1.26678132       0.00932255      -0.04832416      -0.00104992
N        0.36683299       2.19671641       1.29203691      -0.00440469       0.03452733       0.02952688
H       -0.61984558       2.02838037       1.46193186       0.00818827      -0.03599916       0.03194777
H        0.46020429       3.19494704       1.13791560       0.00618045       0.03813579      -0.01736619
