15
Properties=species:S:1:pos:R:3:forces:R:3 Coordinates=T from=T ORCA-job=T run=T Energy:=T 61.8699065=T energy=-79988.11531253975 pbc="F F F"
C        0.34716334      -0.06174079      -0.20381427      -0.00461743      -0.00815350      -0.00447366
H        1.65877214       1.48014756      -0.52900765      -0.01354668       0.01212038       0.01345037
Br      -1.52641510      -0.55044374       0.22750775       0.00335973       0.01750953      -0.00207255
F        1.92496998      -0.03333979       1.84198668       0.00035784      -0.00316143       0.01384240
C        0.58746062       1.45027582      -0.24557924      -0.00701972       0.00795249      -0.02612106
H        1.00546280      -0.38614527       0.69046198       0.00821413       0.01192633       0.04170665
C        0.69421309      -0.71214857      -1.43769785       0.00843404      -0.00196484      -0.01896108
N        1.01571961      -1.22111469      -2.42552155       0.00259055      -0.01444013      -0.01423783
N        0.36398948       1.97743751       1.08630512       0.03399822      -0.00587410      -0.03265214
H        0.74102389       2.91988817       1.11579880       0.01214334      -0.01842718       0.01629053
H        0.96025295       1.37307645       1.68860278      -0.00390002      -0.00213213       0.00110922
C       -0.21559039       2.19742796      -1.29370672      -0.01363352       0.00099001      -0.01027188
H       -0.05835069       1.77688906      -2.29233527      -0.02051113       0.00732167       0.00104049
H       -1.27978917       2.15014719      -1.04854551       0.00276012       0.01350286      -0.01101880
H        0.08114900       3.25304409      -1.32425272      -0.01273874      -0.01779456       0.02255960
