13
Properties=species:S:1:pos:R:3:forces:R:3 Coordinates=T from=T ORCA-job=T run=T Energy:=T 124.6639700=T energy=-37769.18234520232 pbc="F F F"
C        0.11950439      -0.09049434      -0.06607912      -0.00261409       0.00825454      -0.01370550
H        1.65909435       1.34479589      -0.11383060      -0.01505846      -0.00573184       0.01715641
Cl      -1.68343232      -0.25041858       0.00068858       0.00652188      -0.00350041       0.00906631
Cl       3.48303326       0.31001733       0.17541764       0.00273484       0.00078979       0.01186953
C        0.53819640       1.36689363      -0.09634654      -0.00207588       0.00724598      -0.01004163
H        0.22110309       1.82401894       0.84279407       0.01766757       0.00030193       0.00403126
C        0.58335188      -0.88502015      -1.19095385       0.00261479       0.00058114       0.03681583
N        0.83467414      -1.49655510      -2.13237203      -0.00057802      -0.01031469      -0.03558874
N        0.59010035      -0.74007309       1.26949250       0.00213420      -0.00055996      -0.00279833
O        0.56358804      -0.02059980       2.23359034       0.00403225      -0.00900755       0.00549447
O        0.82490588      -1.91591212       1.23509777      -0.00093176       0.00921731      -0.00260788
C       -0.00567333       2.09860151      -1.21755953      -0.01533549      -0.00102571      -0.01611910
N       -0.42509146       2.71470393      -2.09722502       0.00603172      -0.00380722      -0.00584617
