13
Properties=species:S:1:pos:R:3:forces:R:3 Coordinates=T from=T ORCA-job=T run=T Energy:=T 207.9719336=T energy=-18160.254945247816 pbc="F F F"
C        0.99749498       0.01967884       0.00317897       0.00123733       0.00751381       0.00962469
H        0.70822715       1.32599170       1.64482697      -0.00848098      -0.00807129      -0.01230714
F       -0.88454533      -0.29665117       1.02206062       0.00089944       0.02677259       0.00325452
F        2.25852044       0.03443663      -0.63454327      -0.00919630       0.00453955      -0.00474956
C        0.76878750       1.41996243       0.56178131      -0.00345484       0.00797192      -0.00073430
H        1.64283742       2.02943473       0.30328237       0.00468792      -0.00916963       0.01837952
C        0.02923862      -0.48212588      -0.96287589       0.01962542      -0.00195279       0.00587816
N       -0.51997168      -0.81583047      -1.92244956       0.00180846      -0.01437240      -0.02076305
N        1.24061644      -1.00445115       1.10947565      -0.01673213      -0.00511694       0.03550714
O        1.68938512      -0.58511025       2.15740636      -0.00676690      -0.00661541      -0.02056404
O        1.14679356      -2.16561759       0.79893685       0.03332910      -0.02276567       0.01078927
C       -0.42095171       2.10006554       0.08140086      -0.01061081       0.00151608      -0.00396224
N       -1.27982393       2.76848059      -0.29702722       0.01058197       0.01840598       0.00255587
