14
Properties=species:S:1:pos:R:3:forces:R:3 Coordinates=T from=T ORCA-job=T run=T Energy:=T 191.6336368=T energy=-17157.319376613268 pbc="F F F"
C        1.08925307       0.05219708      -0.02539996      -0.02129789      -0.01265087       0.00472874
H        1.69911686       2.06984043       0.08451280       0.02479330       0.00373196      -0.01142201
F       -1.18109339      -0.09466945      -0.13746216       0.00095208       0.02262126       0.01930228
F        2.48322654      -0.09200058       0.10811895      -0.02225190       0.01805306       0.00775590
C        0.74479629       1.53819490      -0.00016118       0.01981099      -0.00302485      -0.01050805
H        0.16744207       1.69834942       0.91469280       0.02939718       0.00860358      -0.02572884
C        0.70685177      -0.68985905      -1.22681137       0.00491344       0.00451111      -0.01438855
N        0.68582867      -1.27987255      -2.21857173       0.02417196      -0.00198999      -0.00389050
N        0.60472511      -0.69979502       1.21953870       0.01391633      -0.02443955       0.00593280
O        0.49888851      -0.06023924       2.24500725      -0.01572395      -0.00046913      -0.01694330
O        0.55032404      -1.90231923       1.13843828      -0.00319309      -0.02548352       0.03147617
N        0.05854022       1.92817657      -1.22078067      -0.00752826       0.00018792       0.01003562
H       -0.19959364       2.90567758      -1.13824161      -0.03165092      -0.00742942       0.01945735
H       -0.79738888       1.36243930      -1.16427870      -0.01255532       0.01360670      -0.01417557
