15
Properties=species:S:1:pos:R:3:forces:R:3 Coordinates=T from=T ORCA-job=T run=T Energy:=T 166.3765651=T energy=-15609.101401719676 pbc="F F F"
C        0.20181497      -0.04702027      -0.15712982      -0.01256678      -0.02322514       0.00261226
H        1.44628266       1.60638840      -0.68848226       0.01788357       0.00294094      -0.02804266
F       -1.12533992      -0.27467968      -0.57603992      -0.01467281       0.03113490      -0.01919209
F        2.28506869       0.05705707       0.85580432      -0.00941653       0.02006659      -0.00249083
C        0.48071440       1.49574684      -0.18803598       0.01731588      -0.00787729       0.00021625
C        1.05766173      -0.75165144      -1.12417242       0.00758090       0.01069670      -0.00617454
N        1.59061636      -1.31223906      -1.97866056      -0.01584760       0.01281410      -0.00726717
C        0.29820895      -0.67770458       1.17090871      -0.00203758      -0.00794582      -0.00443029
N        0.01330248      -1.26828802       2.12431952       0.00061790      -0.01754841       0.02341926
N        0.52379298       1.97545841       1.18323904      -0.02336518       0.01351315       0.02695649
H        0.80192619       2.95246653       1.15896931       0.02124740      -0.00525993      -0.01357218
H        1.31982138       1.44489537       1.56524656      -0.01859634       0.02745483       0.00560013
N       -0.52246844       2.14129584      -1.01123808      -0.01935422      -0.00608210       0.01321579
H       -0.28136947       3.12313766      -1.09556205       0.04018144      -0.02621668       0.00256023
H       -1.40779819       2.09989539      -0.51779693      -0.02020854      -0.01189580       0.00094961
