16
Properties=species:S:1:pos:R:3:forces:R:3 Coordinates=T from=T ORCA-job=T run=T Energy:=T 194.9640120=T energy=-34781.755944014345 pbc="F F F"
C        1.12062677       0.03369766       0.00043104       0.01040136       0.00425749      -0.00159174
H        1.73263350       2.05709157      -0.19939402      -0.03050991       0.00210596       0.01407571
Cl      -2.36174752      -0.01437479      -0.11265837      -0.00462095       0.00670676       0.00865892
Cl       2.95864584      -0.11785849       0.26032502      -0.00041464       0.03427401       0.01423327
C        0.76672960       1.56843398      -0.03699562      -0.01644593      -0.00797395      -0.00831565
C        0.86943138      -0.65643405      -1.26288937       0.00229585       0.00597060      -0.00115896
N        0.79128622      -1.26532443      -2.23639136       0.00964024      -0.00681946      -0.02571896
C        0.56361371      -0.71193703       1.12909722      -0.01404776      -0.00296987       0.02719565
N        0.30522679      -1.30088805       2.08462098      -0.02008968      -0.00433343      -0.01327642
C        0.17989381       2.04292670       1.28904461       0.00985195      -0.01552715       0.01083594
H       -0.79442335       1.57419153       1.45129777      -0.00396815       0.00630602      -0.00447021
H        0.83042820       1.82782741       2.14286941       0.03909391       0.00989089       0.00899532
H        0.03779517       3.12779317       1.23362740       0.01805888      -0.02083280       0.01814716
N       -0.04392061       1.83597594      -1.20452077      -0.00482111      -0.01769752      -0.02732447
H       -0.20072226       2.83652682      -1.25405156       0.00901883      -0.00134400      -0.03556855
H       -0.96000635       1.38788325      -1.07006184      -0.00523706       0.00104152       0.00398589
