13
Properties=species:S:1:pos:R:3:forces:R:3 Coordinates=T from=T ORCA-job=T run=T Energy:=T 70.6918732=T energy=-23907.99165338146 pbc="F F F"
C        0.33310175      -0.06844464      -0.01611639      -0.03917563       0.02940197      -0.00535735
H        1.64911276       1.53223568       0.00419148       0.01025775      -0.02173831      -0.02230557
Cl      -1.58296268      -0.25071632       0.05959526      -0.02367808      -0.00706708       0.00932229
F        2.54924287      -0.28320293       0.03361118      -0.01213100       0.01441780       0.02679938
C        0.56391379       1.44987544      -0.01295271       0.00761776      -0.01162519      -0.00646702
H        0.15153640       1.81848084       0.93920519       0.02395082      -0.00167522      -0.02116523
C        0.70807397      -0.75381740      -1.24528310      -0.01091556       0.02468319       0.02689349
N        0.79312765      -1.30998256      -2.25239063       0.02225097      -0.00968190      -0.04166364
C        0.82496132      -0.70621751       1.20056261       0.01540303       0.00256147       0.01853743
N        0.89381257      -1.16482166       2.26196069      -0.00096506      -0.00298529      -0.00748974
N        0.02220255       2.08188594      -1.19603242       0.01637002      -0.01642414       0.02761472
H        0.46956611       2.97669009      -1.33804689      -0.01640463       0.00091355      -0.00356523
H       -0.97411576       2.23104827      -1.10401475      -0.00178148      -0.00507209       0.01353035
