14
Properties=species:S:1:pos:R:3:forces:R:3 Coordinates=T from=T ORCA-job=T run=T Energy:=T 92.7553825=T energy=-23473.11464427119 pbc="F F F"
C        0.10534630      -0.07888449      -0.07405498       0.06103899       0.01329484      -0.00855146
H        1.49145077       1.52658063      -0.26554652       0.00482503      -0.07253011      -0.01678431
F       -1.29499877      -0.21357844      -0.16361105       0.02228560       0.02671852       0.02280137
Cl       3.32041654       0.13311382       0.53681761       0.00015976      -0.01360046      -0.02068593
C        0.42636344       1.41512215      -0.05286620       0.02470575       0.00238335       0.00998437
H       -0.15627808       1.83813977      -0.87979876      -0.01860893       0.03117056       0.05683021
C        0.63294709      -0.72580170      -1.28640790      -0.02169479       0.01688035      -0.03188887
N        0.87351762      -1.20219327      -2.30620460       0.03024645      -0.01776370      -0.00113344
C        0.47073985      -0.82293115       1.14450491      -0.05868850      -0.00951162       0.07301094
N        0.44863878      -1.43401162       2.12188932       0.03514286       0.01873093      -0.04226246
C        0.10880097       2.06585190       1.28073982      -0.01540751       0.00209078      -0.03562408
H       -0.92289996       1.88791770       1.59714211      -0.00984309      -0.02546749       0.01239543
H        0.79163788       1.68080381       2.04381157      -0.04958914       0.04702522      -0.01365421
H        0.25788850       3.14711916       1.20966469       0.00949251      -0.01538762       0.00983519
