14
Properties=species:S:1:pos:R:3:forces:R:3 Coordinates=T from=T ORCA-job=T run=T Energy:=T 36.8447591=T energy=-13668.767907402782 pbc="F F F"
C        1.08823719      -0.11619231      -0.18918395      -0.00568430       0.01463544      -0.00204107
H        1.09010358       1.80835174       0.73179223      -0.02670067      -0.03212483       0.01108496
F       -1.71211208       0.89792129       1.02593570       0.03275619       0.00927753       0.01237024
F        2.47772003      -0.28597776      -0.55129159       0.00001735       0.00290159       0.00118251
C        0.63956296       1.28871033      -0.11816293      -0.01573646       0.00810247      -0.00003792
H       -0.88233341       1.11108082       0.49561834      -0.00953403       0.03338313       0.00931984
C        0.35989745      -0.87328020      -1.22545215       0.00768537       0.00458077      -0.00805935
N       -0.20016364      -1.51077385      -2.00577493       0.00727345       0.00453781       0.00689518
C        0.93962693      -0.81950351       1.15395357       0.00279769       0.00068122      -0.00183584
H        1.60384913      -0.32718550       1.86875295      -0.00120740       0.01176448       0.00316428
H       -0.08864061      -0.72659600       1.50307739      -0.00296892      -0.01533139      -0.01802417
H        1.22617150      -1.86985848       1.07593589       0.01372016      -0.01097305       0.01147091
C        0.66906820       2.07243343      -1.29554191       0.00966883      -0.01075323      -0.00164700
N        0.64192577       2.75444697      -2.23723304       0.01107189      -0.01449962      -0.00484977
