17
Properties=species:S:1:pos:R:3:forces:R:3 Coordinates=T from=T ORCA-job=T run=T Energy:=T 142.4760286=T energy=-34346.48443195241 pbc="F F F"
C       -0.00408625      -0.15858083      -0.01665195      -0.04294282       0.04255203      -0.04410415
H        1.58048354       1.24355426      -0.11175797       0.09055255      -0.01285558       0.01238924
Cl      -1.84294155      -0.22779934       0.08170886      -0.03418254       0.00105592       0.01520871
Cl       3.61515557       0.87183981       0.77847378      -0.00963778      -0.00928008       0.04501512
C        0.47025739       1.30710494      -0.05204952       0.05024914       0.00895811      -0.01426393
C        0.33672113      -0.85451999      -1.25823265       0.00372291      -0.02207979       0.01394804
N        0.60729024      -1.44415460      -2.21043486      -0.01404954       0.04374370       0.02867002
C        0.56518871      -0.91389786       1.17418455      -0.04744109       0.06025253      -0.10301743
H        1.65888537      -0.84593111       1.13977687       0.00302971      -0.00373554       0.02492353
H        0.21242910      -0.45636484       2.09602082      -0.00445010       0.02223756       0.07462943
H        0.22340304      -1.94756280       1.15270131       0.07441111      -0.09444719      -0.03304373
C        0.15919178       2.08820762       1.22254312       0.00190748      -0.01435580       0.02971026
H       -0.90824488       2.07530650       1.45289484      -0.03247181       0.07995877      -0.01066405
H        0.72132516       1.67670098       2.05957610       0.08580262      -0.01995789      -0.01859676
H        0.49363255       3.11887357       1.09449203      -0.05393405       0.00094552       0.01143832
C       -0.02298103       2.02916676      -1.21582694      -0.11332322      -0.03887574      -0.07375643
N       -0.41789326       2.64596274      -2.10749989       0.04992854      -0.04466524       0.04235688
