17
Properties=species:S:1:pos:R:3:forces:R:3 Coordinates=T from=T ORCA-job=T run=T Energy:=T 56.0755598=T energy=-91298.21365569616 pbc="F F F"
C       -0.04208518      -0.13026416      -0.06833361      -0.01633422       0.00326966      -0.04660064
H        1.57508215       1.16570735      -0.34110096       0.03922714       0.03224460      -0.00583927
Br      -2.04659947      -0.08561420       0.09535355       0.01528662      -0.02210942       0.02602723
Cl       3.53735853       1.19411935       1.46094209       0.04962183      -0.01123169       0.04250431
C        0.51217252       1.31073850      -0.09034951      -0.02082732      -0.01946391       0.00834272
C        0.22021754      -0.80255459      -1.33690650      -0.08585040       0.04019191       0.13216420
N        0.45613984      -1.38853401      -2.30085099       0.02633641      -0.00580082      -0.07506443
C        0.51661265      -0.92904338       1.09678941      -0.04198877       0.02220049      -0.06345502
H        1.60774963      -0.82807657       1.09176788       0.03554570      -0.03538949       0.00402986
H        0.15137928      -0.50331098       2.03025462      -0.01344544       0.06305810      -0.01316792
H        0.22576504      -1.97772206       1.03142772       0.01131177      -0.03057332      -0.00422751
N        0.39258906       1.88985617       1.23471750      -0.05963493       0.00481810       0.05168264
H        0.33234178       2.89491859       1.12834969       0.01768882       0.02624084      -0.02357796
H        1.28819924       1.72027844       1.70693941       0.00869396       0.02318956      -0.02080312
N       -0.09685904       2.07302436      -1.15345948       0.02858882      -0.05754629      -0.03305199
H        0.49596829       2.85910221      -1.38449882       0.01788303       0.02932491       0.01719224
H       -0.99788109       2.43038055      -0.85543680      -0.02752669      -0.06258017       0.01571698
