16
Properties=species:S:1:pos:R:3:forces:R:3 Coordinates=T from=T ORCA-job=T run=T Energy:=T 75.2834575=T energy=-12229.160638418636 pbc="F F F"
C        1.16296901      -0.05713791       0.09291931      -0.01977038      -0.00637881       0.00047201
H        1.13669438       1.87062493      -0.83531537      -0.00240631      -0.00038185      -0.00375683
F       -1.96113747       0.45355753       0.74601200       0.00511234       0.00241088      -0.00156035
F        2.52687288       0.06851323       0.46714610       0.01072678       0.00852737       0.00025260
C        0.55327466       1.32614085      -0.08299189      -0.00238915      -0.00584058      -0.00655984
H       -0.48347499       1.14546980      -0.40692783      -0.00270746       0.00472678      -0.00638183
C        1.20228233      -0.74295797      -1.21481762       0.00482289      -0.01539599       0.00675606
N        1.24601940      -1.28206031      -2.23341225       0.00832305       0.02096202       0.01691869
C        0.41445991      -0.89012144       1.10906452       0.00201508       0.00069890      -0.00919813
H        0.67921698      -0.51896006       2.10408927       0.01051525      -0.01088060      -0.02910641
H       -0.67720685      -0.66702362       0.96128120       0.01077737      -0.00355601       0.02784609
H        0.68539142      -1.94851518       1.04318911      -0.00960295       0.02125758      -0.01538418
C        0.41288572       2.08108013       1.23166902       0.00042051       0.00332188       0.00802490
H       -0.48052562       1.66365609       1.70661025      -0.00530698       0.00329327       0.01226245
H        1.29807779       2.00842158       1.87282328       0.01478002      -0.01473822       0.00257508
H        0.22714939       3.14286689       1.03840193      -0.00359569       0.01051294      -0.02070443
