16
Properties=species:S:1:pos:R:3:forces:R:3 Coordinates=T from=T ORCA-job=T run=T Energy:=T 56.0553182=T energy=-79551.56075984908 pbc="F F F"
C        1.16651576      -0.01424212       0.12103614       0.00027691       0.01364570       0.00063769
H        0.94925129       1.89642123      -0.84757996       0.00748034      -0.01691893       0.00378791
F       -1.97539988       0.18041025       0.45097818       0.00245945      -0.00863760       0.01179852
Br       3.12822809       0.31505177       0.72915233      -0.00274302       0.00425270       0.00703333
C        0.45082593       1.30713986      -0.07213319      -0.00098475       0.01567496       0.01219724
H       -0.57545322       0.97438199      -0.36755580       0.00909174       0.00105873      -0.00067124
C        1.36370705      -0.67971608      -1.15920318      -0.03040747      -0.02614832      -0.01188180
N        1.48782278      -1.20865477      -2.17736846       0.00532613       0.00653188       0.01622452
C        0.46863581      -0.90301770       1.11933254       0.00952879       0.01239133      -0.00959533
H        0.83611541      -1.93121289       1.08555849      -0.02010186       0.01413635      -0.01354915
H        0.61493065      -0.50163216       2.12459137      -0.01694086      -0.01610237      -0.00635820
H       -0.62808312      -0.77898694       0.87111184       0.02566361      -0.01868744       0.00929471
C        0.21629080       2.08295730       1.21386858       0.00959419       0.02734950       0.00442913
H       -0.62859291       1.61314112       1.72243237       0.00786389      -0.01160812      -0.04346470
H        1.09868603       2.12684851       1.86178526       0.00702582       0.00598904       0.01209264
H       -0.07402644       3.11011336       0.97387698      -0.01543368       0.02185823       0.00280821
