13
Properties=species:S:1:pos:R:3:forces:R:3 Coordinates=T from=T ORCA-job=T run=T Energy:=T 112.6794952=T energy=-30769.940414120447 pbc="F F F"
C        1.25326172      -0.06334980      -0.07861719       0.06356506       0.03779189       0.08411996
H        0.81338867       1.89275587       0.63099748      -0.05016453       0.01231079      -0.06127520
Cl      -2.17542336       1.03970141       1.83942841      -0.01267555      -0.03165691      -0.00256786
Cl       3.04215147       0.27626274       0.25849449       0.05944447      -0.02131738      -0.02404105
C        0.55171685       1.27350062      -0.22875449       0.00422715      -0.01333335      -0.05585685
H       -0.53426803       1.14815890      -0.17477385      -0.02141205      -0.09157561       0.01083720
H        0.84348303       1.77202573      -1.15330741       0.06381048       0.06609576      -0.02612452
C        1.26040597      -0.85045908      -1.31175167      -0.04251763      -0.01559917      -0.10002015
N        1.25167888      -1.48885567      -2.27291217      -0.02021582       0.08560991       0.08834004
C        0.70451544      -0.88349465       1.07371808      -0.01327240       0.03085019       0.03613348
H        1.35321790      -1.73591340       1.28270114      -0.06545483      -0.05040346       0.01001299
H        0.59369590      -0.24835787       1.95147157       0.06105422       0.00892885       0.05790888
H       -0.30801127      -1.21182425       0.83241748      -0.02581148      -0.01889276      -0.01663155
