15
Properties=species:S:1:pos:R:3:forces:R:3 Coordinates=T from=T ORCA-job=T run=T Energy:=T 116.9517299=T energy=-84044.47680996895 pbc="F F F"
C        0.16067146      -0.04284047       0.05679098       0.00872689       0.01517746       0.01127541
H        2.32182286       1.03103777       0.16222561      -0.01606788      -0.01354699       0.00770205
Br      -2.23659032      -0.47954959       0.00682357      -0.04429750      -0.00403116      -0.02175102
F        3.21787548       0.78058383       0.33256532      -0.01468583       0.01876322      -0.01195649
C        0.41054113       1.33444002       0.03164486      -0.00287142       0.02888100      -0.03120647
H        0.32619843       1.88172870      -0.89720757       0.00681860      -0.02143860       0.00917395
C        0.41910810      -0.66862636      -1.22010012      -0.00304492      -0.06258342      -0.06374061
N        0.70338683      -1.19695793      -2.20734219      -0.00343642       0.09231296       0.06346787
C        0.50678103      -0.93720456       1.22138876      -0.00399975      -0.00320884       0.01935400
H        1.60016599      -1.00008990       1.26919288      -0.00243698      -0.01214002       0.02760600
H        0.13942189      -0.50919228       2.14798150      -0.04948671      -0.00118857      -0.00954349
H        0.08007100      -1.92524286       1.06260018       0.06416927      -0.04175014       0.04372960
N        0.19920900       2.19211114       1.13860499       0.02935873       0.02606629       0.01084756
O        0.19474122       3.39705124       0.89369041       0.00355858       0.02702582       0.00731592
O        0.05029288       1.74029433       2.26946625       0.03275789      -0.04935116      -0.04634924
