16
Properties=species:S:1:pos:R:3:forces:R:3 Coordinates=T from=T ORCA-job=T run=T Energy:=T 89.3702246=T energy=-31838.67118046871 pbc="F F F"
C       -0.01891183      -0.11763109      -0.02004874       0.01285722       0.02613781      -0.00369200
H        1.54806066       1.28962952      -0.20270362       0.01272423      -0.03054054      -0.02282532
Cl      -1.87359959      -0.15192283       0.11527724      -0.00521485      -0.00456541      -0.00013498
Cl       3.66882602       0.75768260       1.17245973       0.00879820      -0.00215296       0.01898172
C        0.46026158       1.33385389      -0.04899180      -0.00577683      -0.00389019       0.00776016
H        0.00320910       1.82765327      -0.91204538      -0.02199422       0.00408834       0.00176946
C        0.25344810      -0.75956987      -1.30650735      -0.00523329       0.01573786      -0.00979576
N        0.46762421      -1.26237051      -2.32167985       0.00388698       0.01736586       0.04633670
C        0.55681783      -0.92794094       1.12499124      -0.00904192       0.00492286      -0.01922173
H        1.65077106      -0.82838918       1.11090948      -0.00720652       0.02581160      -0.00389625
H        0.19724806      -0.51739304       2.06861560       0.01025108      -0.00446042       0.03420726
H        0.25541645      -1.97450953       1.05326682       0.01067710      -0.00798466       0.00394607
C        0.21599478       2.11340812       1.23406121      -0.00382597      -0.00921450      -0.02770216
H       -0.81032382       2.00720493       1.60123442       0.01299241       0.01475412      -0.01670187
H        0.92401815       1.80323110       2.00633918      -0.01338715      -0.01083486      -0.03468568
H        0.39770274       3.17522127       1.04371650       0.00665820      -0.02294487       0.03089089
