15
Properties=species:S:1:pos:R:3:forces:R:3 Coordinates=T from=T ORCA-job=T run=T Energy:=T 120.1221679=T energy=-15610.045283592046 pbc="F F F"
C        1.20743748       0.09119802      -0.20195559      -0.02138968       0.00738963       0.00934643
H        1.57509378       2.01030353       0.49167885       0.02337131      -0.03811849       0.01605930
F       -0.97946209      -0.57356860       1.81964192      -0.00982017       0.01101908       0.00110029
F        2.41950017       0.14468004      -0.91422112      -0.02094924       0.02121809       0.02451935
C        0.73120320       1.55514070      -0.04331650       0.00805064       0.00841978       0.00402579
C        0.30408159      -0.69990814      -1.08497798       0.01144168      -0.00328543      -0.01075667
N       -0.35290907      -1.37261527      -1.75100463      -0.01015319      -0.01125640      -0.01677053
N        1.41908112      -0.47840097       1.06583840       0.02828893       0.00098262       0.00084920
H        1.72941427      -1.43543361       0.92890800       0.00489990      -0.01348716      -0.00846588
H        0.44150496      -0.54936557       1.54319320       0.01077919       0.00220622      -0.00299949
N       -0.52261123       1.72046597       0.65821689       0.01536143       0.00129502       0.00476261
H       -0.34827921       2.27107395       1.48795279      -0.01487521       0.01714607      -0.00972587
H       -0.87327296       0.79944008       1.02616238      -0.00313106      -0.01230401       0.00486957
C        0.69465653       2.23136608      -1.35805061       0.01110331      -0.00400131       0.00604207
N        0.67134088       2.82587515      -2.34552839      -0.00776790      -0.00726039      -0.02704153
