15
Properties=species:S:1:pos:R:3:forces:R:3 Coordinates=T from=T ORCA-job=T run=T Energy:=T 150.6770977=T energy=-29470.675196643148 pbc="F F F"
C       -0.04684778      -0.10052366      -0.00578006       0.03516869      -0.01473358       0.00743365
H        1.65278006       1.21704730      -0.10313438       0.00262936      -0.06594368      -0.05175998
F       -1.43382795       0.00879838       0.06617723       0.01928347      -0.01323927      -0.03052869
Cl       3.45841692       0.12694558       0.47615429      -0.00261813       0.03591237       0.04162327
C        0.54092132       1.32300457      -0.03263639       0.00795609       0.01452264       0.01336867
C        0.21248429      -0.87179759      -1.25026074      -0.04358676      -0.02852167       0.05983610
N        0.36706737      -1.62908703      -2.10471722      -0.02368938       0.03950581       0.00652005
N        0.44904003      -0.74466663       1.14881253       0.14222428       0.07896906      -0.08740402
H        1.46190817      -0.55386236       1.21588109       0.03939493      -0.00719550       0.04947542
H        0.34636236      -1.74468272       1.05756431      -0.09933354      -0.15812738       0.05021905
C        0.20524604       2.05820969       1.17319223      -0.05459734      -0.00998533      -0.01042050
N       -0.02089759       2.66828385       2.12218527      -0.00022921      -0.02662912       0.00900122
N        0.04839552       2.06927652      -1.24290496      -0.01922676       0.05882848      -0.00659982
O       -0.63621921       3.04986494      -1.06779458       0.00568954       0.08076566      -0.06484605
O        0.39407397       1.62228855      -2.31206128      -0.00925646       0.01779260      -0.00209996
