15
Properties=species:S:1:pos:R:3:forces:R:3 Coordinates=T from=T ORCA-job=T run=T Energy:=T 124.9872581=T energy=-12909.694954267965 pbc="F F F"
C        0.29777658       0.05017880       0.14985868      -0.00354934      -0.00540369       0.00369877
H        1.62548605       1.69550995       0.10076288      -0.06577368       0.01104838       0.03093490
F       -1.09411219      -0.16476687       0.15605715       0.00564488      -0.00441867       0.00945580
H        0.79317829      -1.75630497      -0.93923086      -0.00483766       0.00428166      -0.02200485
C        0.53427605       1.56548722       0.12707981      -0.02040667      -0.01285456       0.00170360
C        0.91244439      -0.61994948      -1.10603383      -0.01082717       0.05294605      -0.01977547
N        1.46785969      -0.06782312      -2.06499044      -0.01075835      -0.03720093       0.01907387
N        0.76367842      -0.53717570       1.39005532      -0.01002815      -0.03707597       0.00293836
H        1.78015355      -0.55797417       1.34642606      -0.01539222       0.06655791      -0.00745827
H        0.48904491      -1.51662967       1.34148817       0.00986848      -0.05014181       0.00703788
C        0.02442606       2.20822793       1.34662060       0.09303031      -0.01130521      -0.06241233
N       -0.38189467       2.73310281       2.28998509      -0.01374403       0.02715236      -0.02031208
N        0.00805068       2.21415195      -1.06664022      -0.05215073      -0.03220997       0.01405582
H       -0.97026757       1.94290141      -1.14026053       0.06559143      -0.00918216       0.00474988
H        0.50273523       1.68360354      -1.80604527       0.02428894       0.03809547       0.03807513
