15
Properties=species:S:1:pos:R:3:forces:R:3 Coordinates=T from=T ORCA-job=T run=T Energy:=T 46.3149200=T energy=-22471.264906925648 pbc="F F F"
C        0.00255389      -0.15256780      -0.03110277      -0.01810427      -0.00946123      -0.01579341
H        1.55414246       1.29386060      -0.20528260       0.03442357      -0.02005082       0.00444478
F       -1.40248589      -0.15346660       0.20493849      -0.00702570      -0.00803735      -0.00057656
Cl       3.55108833       0.32430338       1.51116102      -0.01479848      -0.00215252       0.00509320
C        0.46963344       1.29803762      -0.06164568       0.00175730       0.00302658      -0.01726497
H        0.01009936       1.77703728      -0.93101747      -0.03852519       0.04127300      -0.00713431
C        0.10110721      -0.74033029      -1.39340221      -0.00001748      -0.03545348      -0.07745621
N        0.19733856      -1.20240357      -2.44618902       0.00145096       0.00254806       0.05670650
N        0.65192577      -0.90679024       0.95190341       0.00623323       0.01092337       0.00051471
H        1.58637866      -0.54253082       1.20307210      -0.00204223       0.00057422       0.00215413
H        0.70288523      -1.89236032       0.73876118      -0.00827926       0.03232261       0.02436057
C        0.12744949       2.05249972       1.21198438       0.01400961      -0.00114653       0.00182962
H       -0.95264202       2.09098743       1.37582300       0.00840198      -0.03455346       0.00789453
H        0.60513926       1.58955166       2.07603263       0.01404792       0.00341304       0.00637480
H        0.50448871       3.07596864       1.13775108      -0.00486311       0.02035873       0.01987316
