14
Properties=species:S:1:pos:R:3:forces:R:3 Coordinates=T from=T ORCA-job=T run=T Energy:=T 80.8149606=T energy=-80425.1227217343 pbc="F F F"
C        0.42451799      -0.07803438      -0.10202986      -0.10651337       0.02132757       0.11596745
H        0.41261141       1.81220250      -1.11270504       0.03425333       0.02934429      -0.01461040
Br      -2.34755368      -0.28283904      -1.38286069      -0.06747183       0.00372105       0.09283014
F        2.60590849       0.04059288       2.52549040      -0.29861812       0.08949663      -0.10316462
C        0.23343388       1.43404287      -0.10459024      -0.07242565      -0.01282433      -0.02904058
H       -0.83165908       1.57584728       0.08026176      -0.05718531       0.06469754      -0.10484253
C        0.58450112      -0.74771493      -1.36595051       0.02933804      -0.04502142      -0.11222655
N        1.03222969      -1.25851343      -2.30248921       0.06066217      -0.08138299      -0.08809180
N        0.61341603      -0.69406445       1.00480260       0.16523353       0.06068735       0.14901377
H        1.77225382      -0.11779300       2.06562320       0.15852926      -0.13238440       0.10356653
H        0.70068645      -1.70196898       0.88918422       0.06407073       0.11857879      -0.11550393
N        0.98421476       2.19624825       0.86816973      -0.05437528       0.01884125       0.03279352
H        1.97572596       2.00916374       0.80735110       0.07519653      -0.12081369       0.05274689
H        0.69321243       1.94010557       1.80293960       0.09071427      -0.02872508       0.00973042
