16
Properties=species:S:1:pos:R:3:forces:R:3 Coordinates=T from=T ORCA-job=T run=T Energy:=T 135.2468606=T energy=-18663.17975528302 pbc="F F F"
C        1.19818078       0.13140470      -0.15203182      -0.01811537      -0.00922439      -0.02620964
H        1.52156802       2.10096057       0.46759919       0.00288869       0.06759979      -0.01938236
F       -1.10385477      -0.59298051       1.76064251       0.00841751      -0.03173651       0.01658104
F        2.46074980       0.29741384      -0.76104767      -0.03636170      -0.06387323       0.04991662
C        0.66258548       1.56724626       0.06058112       0.04482917      -0.03747276       0.01584101
C        0.45440067      -0.68285597      -1.15340185      -0.03771323       0.04432805      -0.04106440
N       -0.02418219      -1.39826584      -1.92008349      -0.01708250      -0.02729249       0.08658536
N        1.33871486      -0.49521021       1.09981426       0.01154493       0.00223696      -0.05163831
H        1.67216668      -1.44026237       0.93481365       0.00881618       0.00822968       0.04173454
H        0.34430238      -0.58725316       1.52781926       0.06540460      -0.00936064      -0.03662677
N       -0.52248717       1.70910940       0.79115367       0.02976527      -0.02618225      -0.08933638
H       -0.36170675       2.26525410       1.61651493       0.02415808       0.07613555      -0.03007812
H       -0.92942995       0.79056443       1.11368993      -0.09193870      -0.06524400      -0.03996093
N        0.52998218       2.20742458      -1.36139151      -0.02263995      -0.00593555       0.06225099
O        1.42036282       2.95784210      -1.71371432      -0.02988855       0.03351155       0.04151925
O       -0.44867637       1.93087676      -2.01210928       0.02309378       0.04017296       0.01148521
