17
Properties=species:S:1:pos:R:3:forces:R:3 Coordinates=T from=T ORCA-job=T run=T Energy:=T 71.4020644=T energy=-21273.784684214686 pbc="F F F"
C        0.25776415      -0.03876537       0.09227763       0.34966916      -0.06809827      -0.01542513
H        1.67602892       1.44053451       0.26488204       0.08236578       0.11107776      -0.27408137
Cl      -1.52325470      -0.27652032       0.00389961      -0.34548144      -0.09148682      -0.21573151
H        2.12197243      -0.42206967      -0.87061035      -0.01972966      -0.12095815      -0.07770720
C        0.57941395       1.45489841       0.13105625       0.36192151      -0.04545853       0.08806446
C        1.02020946      -0.68324237      -1.17184264      -0.16468018      -0.17034464       0.23090840
N        0.62601959      -1.31767371      -2.14049123       0.01484876       0.24419191       0.17433907
N        0.67210592      -0.66863883       1.35117567      -0.05476585       0.07562878      -0.05023602
H        1.69085686      -0.61731989       1.39401717      -0.02363353       0.02454241      -0.21012034
H        0.46006060      -1.65866886       1.23919452       0.06663309       0.02806135       0.01586960
C        0.02126307       2.19175379       1.32929577      -0.15142753       0.02936035      -0.01853773
H       -1.06488771       2.20790816       1.21947933      -0.17565174       0.15960101       0.24178480
H        0.26582316       1.68401411       2.26570980      -0.01408023      -0.03576238      -0.11505097
H        0.39812825       3.22264222       1.37316720      -0.04757987      -0.05012791      -0.06557047
N        0.23566704       2.14869609      -1.11000447       1.71186404       0.14891937       1.06061241
H       -0.54291467       2.72223645      -0.95217330      -1.37387345       0.75209135       0.15720897
H        0.02764838       1.50469911      -1.82611367      -0.20991551      -0.99235205      -0.93335518
