16
Properties=species:S:1:pos:R:3:forces:R:3 Coordinates=T from=T ORCA-job=T run=T Energy:=T 203.3409015=T energy=-15173.885088558276 pbc="F F F"
C        0.00690732      -0.15790832       0.14572935       0.01002634      -0.01640559      -0.00688787
H        1.60239383       1.22089523       0.19355003       0.00514997      -0.00688543      -0.01417011
F       -1.36167069      -0.16902355       0.52749754       0.00212803       0.01089348      -0.00621913
F        2.97224471       0.31984521       0.55265832      -0.01331783      -0.01041403      -0.00544383
C        0.49090800       1.30789685       0.02830328       0.00151957      -0.01601427      -0.00144657
C       -0.04803756      -0.81851956      -1.19254176       0.01932897      -0.00418587      -0.00757519
N       -0.06790518      -1.38577556      -2.19733179       0.02140307      -0.00845286       0.01281136
N        0.79898698      -0.82580068       1.07488805       0.02038552      -0.01141019      -0.01558357
H        1.82396908      -0.47005015       0.96750916      -0.03278573      -0.00978737       0.02807334
H        0.71825131      -1.83024150       0.99029428       0.00720526       0.00183162      -0.00906340
C       -0.07793262       2.08330025       1.11658333      -0.03950210       0.01498182       0.01167725
N       -0.51769146       2.75799108       1.94380029       0.03768025      -0.00147431      -0.02304466
C        0.19355643       1.96226752      -1.31849712      -0.00656993       0.01883152      -0.01233960
H        0.79927329       1.49352570      -2.09571197       0.00401113      -0.01502987      -0.01620548
H       -0.85906439       1.87618041      -1.60224570      -0.03647798      -0.00515835       0.03230384
H        0.45055953       3.02214001      -1.28819402       0.02192311       0.04214931       0.01325964
