14
Properties=species:S:1:pos:R:3:forces:R:3 Coordinates=T from=T ORCA-job=T run=T Energy:=T 100.5226718=T energy=-26962.54828231225 pbc="F F F"
C        0.41747860      -0.28039880      -0.22548119       0.00932788       0.05720003      -0.09604468
H        1.81323844       1.31890908      -0.32856223       0.04433560       0.01754938      -0.07597465
Cl      -2.03585237       0.19272804       0.33074447       0.02506052       0.01684324       0.02589749
F        2.64390645       0.63625712       1.92842991       0.08409230       0.00471449       0.06073596
C        0.73122674       1.19154931      -0.24329023       0.02791521       0.04978187      -0.01624928
H        0.43431695       1.65319444       0.69229124      -0.09453857      -0.05792954      -0.00246142
C       -0.04134080      -0.98686759      -1.39993474      -0.03734925      -0.07377860       0.07080503
N       -0.22202467      -1.71164115      -2.27974845      -0.01784791      -0.04677742      -0.07239032
N        1.01179289      -0.93557853       0.71092816       0.07255390      -0.00658549       0.04554891
H        2.03535506      -0.04419485       1.61018573      -0.09963016      -0.08562899      -0.04006897
H        0.85901311      -1.93536048       0.63313114       0.00784775       0.02135904       0.07242521
N        0.15075054       2.01527804      -1.33780552      -0.04469338       0.07152579       0.06399871
O        0.19723659       3.21357813      -1.14980994      -0.04373540       0.03929466      -0.00800467
O       -0.25036221       1.47958007      -2.34163528       0.08160826       0.00710395      -0.04080535
