16
Properties=species:S:1:pos:R:3:forces:R:3 Coordinates=T from=T ORCA-job=T run=T Energy:=T 49.6689050=T energy=-83041.41702739874 pbc="F F F"
C        0.89558786       0.02971129      -0.07499741       0.02918886      -0.03127298       0.01018737
H        1.62815778       2.05204555      -0.47834819      -0.01922020      -0.02028138       0.01436969
F       -1.85912683      -0.13360768      -0.57908345      -0.03192331       0.00908784      -0.00897123
Br       2.65238951      -0.32055860       0.82127987      -0.02311288       0.02279574       0.00957096
C        0.71099520       1.53573404      -0.17239903      -0.00694461      -0.03265430      -0.02591620
H        0.13582706      -0.37123125       0.59166260       0.00923824       0.01101502       0.00930951
C        0.82960505      -0.67454853      -1.40505353       0.01339147       0.01377950       0.00273842
H       -0.23549717      -0.62396965      -1.66622765       0.02961033      -0.00026577      -0.01188875
H        1.46038296      -0.19761494      -2.16025645      -0.02083581      -0.00122057      -0.02055619
H        1.12491063      -1.72237355      -1.29917761      -0.01371058       0.02959950       0.00988137
N        0.52633646       2.11894817       1.28339045      -0.00355209      -0.01103790       0.01410892
O        0.84020161       3.29250420       1.40445605       0.01073851       0.02993486       0.01306937
O       -0.00211970       1.45799147       2.14683735       0.01512806       0.01686897       0.00979683
N       -0.39691084       1.84675746      -0.96581720       0.00038951      -0.00407986      -0.01077972
H       -0.62604439       2.83013602      -0.93552313      -0.00807626       0.01201571       0.00055294
H       -1.20144147       1.13244288      -0.79650235       0.01924603      -0.02671122      -0.01061700
