15
Properties=species:S:1:pos:R:3:forces:R:3 Coordinates=T from=T ORCA-job=T run=T Energy:=T 113.0582335=T energy=-77286.96669836795 pbc="F F F"
C        0.10291810      -0.10089506      -0.19853482      -0.02136311      -0.04583580      -0.04440569
H        1.67557904       1.25127061      -0.18057779       0.01516313      -0.03687583      -0.01412536
Br      -1.86612701      -0.25903974      -0.03308021       0.00884417      -0.03636906       0.01611967
H        2.65545543       0.72670069       1.52533954      -0.02784509       0.03208608      -0.05369515
C        0.55959918       1.34870808      -0.09148197      -0.02579578      -0.03733183       0.03405924
H        0.49788233      -0.60611899       0.68396266      -0.01586354       0.06083327       0.03462012
C        0.56172362      -0.78264250      -1.46526305      -0.00386039      -0.02406745      -0.02818524
H        0.17334688      -1.79986144      -1.53906763       0.01371023      -0.02205882       0.05209089
H        0.23955878      -0.23339680      -2.35407132       0.01744943       0.01209411      -0.00699309
H        1.65668581      -0.83043139      -1.44742776      -0.01877628       0.03313968      -0.03629066
N        0.28471618       1.88274194       1.22941440      -0.04326016       0.00650801       0.04548408
H        0.38589906       2.89251658       1.19242893       0.00430116       0.04295983      -0.01272067
H        1.13753182       1.54047776       1.74299047       0.01781242      -0.03928539      -0.00135245
C        0.04024675       2.16974109      -1.17377457       0.04230834       0.04958289       0.01776430
N       -0.33776742       2.82761821      -2.04594610       0.02938427      -0.00050760       0.00842477
