14
Properties=species:S:1:pos:R:3:forces:R:3 Coordinates=T from=T ORCA-job=T run=T Energy:=T 24.4496723=T energy=-144803.9904334797 pbc="F F F"
C        0.27445076      -0.05502921      -0.09028068       0.02954548       0.03030305       0.00241856
H        1.59969171       1.52427495      -0.31529313       0.00752702      -0.01475397      -0.00143517
Br      -1.65078078      -0.36647766       0.45266512       0.00119139      -0.03045120      -0.01469013
Br       3.85296400       0.01620315       0.44266070      -0.00189113       0.00176049      -0.00134502
C        0.52001472       1.43407236      -0.13984419       0.00192192       0.02583580      -0.01137373
H        0.84408113      -0.47882817       0.73493393      -0.00083551       0.00308566       0.01867129
H        0.32940774       1.85857446       0.85732028      -0.01021714      -0.00752821       0.00906168
C        0.56730156      -0.78306415      -1.37362967       0.00008344      -0.00030343       0.00349595
H        0.01268654      -0.35888062      -2.21136271      -0.00240456       0.02794181       0.00274542
H        1.64341860      -0.66427450      -1.54564756       0.00616279      -0.01416746      -0.00551274
H        0.35357941      -1.84999908      -1.28869581      -0.01918361      -0.01511472       0.01141266
N       -0.21636189       2.08702641      -1.21501658      -0.01571805      -0.00416674      -0.02916728
H        0.08682473       3.04980461      -1.29097078       0.02846633       0.00134653       0.00519095
H       -1.20245254       2.10573820      -0.97797318      -0.01812159      -0.01004081       0.01464192
