15
Properties=species:S:1:pos:R:3:forces:R:3 Coordinates=T from=T ORCA-job=T run=T Energy:=T 224.0680466=T energy=-14019.874226834192 pbc="F F F"
C        0.09354860      -0.06519750      -0.24839916       0.00310939       0.04445538      -0.03023798
H        1.50385774       1.49607541      -0.92563759       0.03696529       0.00187671       0.07537124
F       -1.25146166      -0.02293206      -0.71830183       0.03990734      -0.01426974       0.03942165
H        2.29032058       0.13754295       0.73999614      -0.10994585       0.18534062       0.01919000
C        0.66089804       1.37085853      -0.25668535      -0.17403154       0.08250352      -0.06594187
H        0.03018396      -0.40056126       0.78027243       0.02017976      -0.03493531       0.01659791
C        0.83702728      -1.03895229      -1.14951122      -0.00458169      -0.03727814      -0.01231550
H        0.20091862      -1.28147587      -2.00913057       0.00071396       0.02756285       0.00396424
H        1.78300444      -0.62580295      -1.49054365       0.00957082      -0.03279239      -0.00522864
H        1.06949501      -1.95594769      -0.60754485      -0.00763006      -0.02255147      -0.04233694
C        0.89180151       1.97782299       1.03660936       0.23606614      -0.20617666       0.10206408
N        0.90773564       2.63978472       1.98886556      -0.03874789       0.02951985      -0.01571098
N       -0.45145812       2.29147430      -0.99669315       0.04586640      -0.01805050      -0.00509594
O       -1.37861859       2.72548508      -0.36054885      -0.00493007       0.03291309      -0.02756202
O       -0.23325433       2.51898141      -2.17048661      -0.02401021      -0.02698361      -0.05645647
