15
Properties=species:S:1:pos:R:3:forces:R:3 Coordinates=T from=T ORCA-job=T run=T Energy:=T 59.7802567=T energy=-89793.49698977938 pbc="F F F"
C        0.19926125      -0.10765331      -0.16069725      -0.00121955      -0.03915905      -0.00612651
H        1.50257091       1.48105361      -0.46170014      -0.01597027       0.02297529      -0.00770490
Br      -1.69620979      -0.53556806       0.21047417       0.00413727       0.00087350       0.01371746
Cl       3.22546948       0.48780250       1.31118775       0.00198931       0.00849444       0.00283527
C        0.44798670       1.39909397      -0.14043545      -0.00488522      -0.02762951      -0.00796786
H        0.75352571      -0.51591340       0.68407114      -0.00180546      -0.00899559       0.00898789
C        0.62966954      -0.76628359      -1.44858219       0.00190660       0.00190640      -0.02068483
H        0.11073471      -0.34232856      -2.31278697      -0.01753835      -0.00676325      -0.00678411
H        1.70743999      -0.61432519      -1.56760894       0.00085885      -0.00502055       0.01680391
H        0.43745400      -1.84051692      -1.42133294       0.00239328       0.01914098       0.00305921
N        0.26535629       1.94034996       1.19858512       0.01130077       0.01532041      -0.02170361
H        0.40479985       2.94470555       1.15330009      -0.00642303       0.00447964       0.01781620
H        1.07467485       1.58016197       1.71497516      -0.00972764       0.00396098      -0.01143467
C       -0.37297951       2.10942884      -1.12353345       0.00663665       0.00337244       0.02745456
N       -0.98207175       2.68976345      -1.91253648       0.02280997       0.00716149       0.00451486
