13
Properties=species:S:1:pos:R:3:forces:R:3 Coordinates=T from=T ORCA-job=T run=T Energy:=T 26.5058122=T energy=-78483.80343810855 pbc="F F F"
C        0.82457545       0.01807518       0.02413988      -0.03935439      -0.01194977       0.02455635
H        0.65953102       1.97827547      -0.78539465      -0.00951028      -0.00557313      -0.01887089
F       -2.14656078       0.75036587      -0.70524786      -0.00109372      -0.04168244      -0.00589865
Br       3.56832419      -0.69158636       0.56126601       0.00087681      -0.00720920       0.02353301
C        0.56098647       1.35095456       0.09721976       0.07689424      -0.00110795       0.00834491
H        0.74759672      -0.57755154       0.92577031       0.03469615       0.02200225       0.02062496
H       -1.29920042       0.84944225      -0.30804126      -0.00524827       0.01831438      -0.04072238
C        0.91051703      -0.71147925      -1.27477963       0.00595102       0.01282352       0.02070104
H       -0.09930976      -0.85180419      -1.68596494       0.00672178       0.02672167       0.00171386
H        1.51065182      -0.15233875      -1.99467680      -0.03875364       0.00306241      -0.04152167
H        1.38753634      -1.67773621      -1.12909275      -0.00123585      -0.00823575      -0.03311597
C        0.36373037       2.03571884       1.32142829      -0.02947462      -0.09908608      -0.06229309
N        0.15596043       2.60766463       2.30540955      -0.00305872       0.09869205       0.09057621
