17
Properties=species:S:1:pos:R:3:forces:R:3 Coordinates=T from=T ORCA-job=T run=T Energy:=T 34.6304554=T energy=-145872.7431839259 pbc="F F F"
C        0.24528374      -0.06682986      -0.12709912      -0.00995685       0.02177894       0.02073614
H        1.45611068       1.57128444      -0.37808624      -0.03754151      -0.01952367      -0.01041351
Br      -1.66139980      -0.57760089       0.32165676      -0.00125981       0.00321008      -0.03726039
Br       3.60333562      -0.07803538       0.90555272       0.00428575       0.03825494       0.01222881
C        0.38569542       1.44547178      -0.15786625      -0.01624508       0.01294073       0.01251581
H        0.82221907      -0.46019699       0.70909795      -0.00167537      -0.00723569       0.01035638
C        0.64138234      -0.74127349      -1.41128479      -0.00217652      -0.00752630       0.00799342
H        0.07787243      -0.34247393      -2.25556164       0.01765318      -0.00071267      -0.02367090
H        1.70925025      -0.53813339      -1.54481769       0.01018338      -0.02056934      -0.02092810
H        0.51400568      -1.82275598      -1.34846206      -0.02401435      -0.03025540      -0.00322441
C        0.13023799       2.08553487       1.20086390       0.01206147       0.00727447       0.00556007
H       -0.91155206       1.95302257       1.51243891       0.01612886       0.00220319       0.00303186
H        0.78952628       1.64538778       1.95399238       0.00925706      -0.00647842       0.00646884
H        0.34300119       3.15975330       1.16180108      -0.00019807       0.00507615      -0.02291351
N       -0.37981869       2.01793338      -1.26564936       0.00305285       0.00001652       0.00815286
H       -0.17270356       3.00797914      -1.33116255       0.00861462       0.00400843       0.01523817
H       -1.37024308       1.94184546      -1.05112488       0.00807733      -0.00702174       0.02254802
