14
Properties=species:S:1:pos:R:3:forces:R:3 Coordinates=T from=T ORCA-job=T run=T Energy:=T 24.1071822=T energy=-24018.28449185823 pbc="F F F"
C        0.97159597      -0.02403486       0.04127165       0.02233568      -0.01528046       0.01332802
H        0.89669199       2.01727820      -0.72299278       0.03199193       0.01916180       0.01798868
F       -1.94278888       0.63295808      -0.70558293      -0.02346213       0.01378580      -0.01642123
Cl       2.96308420      -0.32967838       0.51899295       0.03562806       0.01679761       0.02833083
C        0.58445298       1.34306848       0.06572831      -0.03393262      -0.02546771      -0.01136186
H        0.56601431      -0.59226442       0.87323229       0.04134057       0.00736454      -0.01143169
H       -1.08850067       0.95696244      -0.37521213       0.02989792       0.02398332      -0.02281775
C        0.88380365      -0.70530938      -1.30054319      -0.01316667      -0.01116578       0.01177993
H       -0.15799401      -0.69980427      -1.63216841      -0.02238242       0.00836671       0.00009416
H        1.49195937      -0.17611211      -2.03948459      -0.03571505      -0.00428889       0.00685506
H        1.24070876      -1.73399848      -1.24306222       0.00819270      -0.00674184      -0.00512377
N        0.46485434       2.00613606       1.30159200       0.00586456       0.01426623       0.00162776
O        0.46616097       3.24096129       1.29406662      -0.01967366      -0.02632494      -0.00437648
O        0.32143999       1.35011548       2.33418772       0.00558324      -0.01724492      -0.01918300
