18
Properties=species:S:1:pos:R:3:forces:R:3 Coordinates=T from=T ORCA-job=T run=T Energy:=T 22.2344499=T energy=-20595.590138678934 pbc="F F F"
C        0.78910639       0.04127106      -0.01234122       0.02105247      -0.02594069       0.01678292
H        1.72512516       1.86669707      -0.57644907      -0.03476337      -0.00432645       0.02154936
Cl      -2.69776552      -0.73593859      -0.15111705      -0.01592519       0.01201005      -0.00398930
F        1.82966793      -0.25819827       0.90052275       0.02778712       0.01689918       0.00814616
C        0.74596017       1.55476601      -0.17463402      -0.01151654      -0.03468390       0.00214314
H       -0.14785953      -0.31163583       0.43196744       0.00036245      -0.00863089      -0.00213195
C        1.06935558      -0.72873241      -1.27644069       0.00345627       0.00036069      -0.01480383
H        0.21479938      -0.66384622      -1.95113292      -0.01956027      -0.00706345      -0.01244353
H        1.97075059      -0.35295525      -1.77421137       0.00469623       0.00930280      -0.03973015
H        1.21758224      -1.78515935      -1.04061282      -0.00173123       0.00486429       0.03334168
C        0.54559298       2.21161027       1.18822181      -0.00335750      -0.00293942      -0.02624629
H       -0.41637603       1.90402769       1.61166300       0.01091682       0.01659773      -0.00244592
H        1.33601352       1.91847002       1.88356372      -0.02911420       0.01082380       0.00261989
H        0.54653662       3.30417867       1.10444737      -0.00030322       0.00140338      -0.00210665
C       -0.35786270       1.96655383      -1.14636611       0.01139264       0.00315835       0.00067520
H       -0.15831508       1.61761062      -2.16373149       0.02490073       0.01303372      -0.00373855
H       -1.32071507       1.53850328      -0.84459373       0.02234237      -0.00477742       0.01327963
H       -0.44393701       3.05838042      -1.18423582      -0.01502484       0.01374940       0.00780176
