15
Properties=species:S:1:pos:R:3:forces:R:3 Coordinates=T from=T ORCA-job=T run=T Energy:=T 17.1183708=T energy=-74342.5680495478 pbc="F F F"
C        0.37728810      -0.05614579      -0.07762603       0.00922728       0.00757961       0.02438960
H        1.69075354       1.49751758      -0.31544381      -0.03060303       0.00159777       0.00687262
Br      -1.50844407      -0.43420868       0.57016212       0.00715874       0.00337429      -0.02649267
H        3.22759538      -0.19302319       0.33521015       0.00369246       0.00698744      -0.00983961
C        0.59846835       1.43662597      -0.17892964      -0.01277103       0.00143916      -0.00873256
H        1.03327555      -0.43708266       0.71081763       0.03343887      -0.00987558       0.02904882
H        0.39488966       1.88964984       0.79875786      -0.00445822      -0.02339993      -0.01600556
C        0.64240960      -0.84154265      -1.33423576      -0.00203407      -0.00115386       0.00614826
H        0.05259994      -0.50392331      -2.19090245      -0.00146388       0.02366708      -0.01001002
H        1.71838516      -0.71497780      -1.51297061       0.00658279      -0.00009015      -0.02082116
H        0.45751307      -1.90652196      -1.17809599      -0.02723969      -0.02063557       0.01047002
C       -0.16849072       2.17790506      -1.26202272       0.00972943      -0.00283554       0.01751077
H        0.05843226       1.80032784      -2.26485913       0.00490871       0.00325400       0.03741923
H       -1.25134595       2.09959647      -1.11158685       0.01882270      -0.00324103      -0.02840700
H        0.09398359       3.24205065      -1.25077690      -0.01860809      -0.00701522      -0.01394655
