15
Properties=species:S:1:pos:R:3:forces:R:3 Coordinates=T from=T ORCA-job=T run=T Energy:=T 152.0916347=T energy=-12665.752456630407 pbc="F F F"
C        0.87167689      -0.00150061       0.01451409      -0.01995032       0.00004573      -0.00710497
H        1.74434216       1.86876869      -0.49807331       0.00245589      -0.02422519      -0.00812731
F       -1.84025935      -0.13849205      -0.68527186      -0.00885204       0.01683609       0.00583876
F        2.04491722      -0.26388036       0.75066605      -0.00738958      -0.01418710      -0.01723422
C        0.76679641       1.52235512      -0.11872129      -0.00419665       0.00655414      -0.01388328
H        0.01375620      -0.36708586       0.57913466      -0.00698695      -0.01606308       0.00245687
C        0.89088048      -0.69897894      -1.31859716       0.00092110       0.00034588       0.00671638
H       -0.16011460      -0.70009802      -1.63172844       0.02756904      -0.00043589      -0.03425214
H        1.52876989      -0.19514395      -2.05291573       0.00874343      -0.01724088       0.03124633
H        1.23392946      -1.73074273      -1.18481337       0.00413311       0.01751468       0.01800663
C        0.64414643       2.13179205       1.22411654      -0.01558086       0.01849843      -0.03627216
N        0.52844646       2.69268331       2.22717998       0.00365430      -0.00636234       0.01790851
N       -0.30351026       1.87423433      -1.02454028      -0.00610044       0.00202291       0.01401552
H       -0.64392731       2.80601067      -0.81973749      -0.00385190      -0.03796897       0.01171994
H       -1.08740085       1.14450850      -0.90555912       0.02106531       0.02763396       0.02044600
