14
Properties=species:S:1:pos:R:3:forces:R:3 Coordinates=T from=T ORCA-job=T run=T Energy:=T 13.8423355=T energy=-24018.294364557656 pbc="F F F"
C        0.14803104      -0.10293799      -0.00594702       0.00588557       0.02096465       0.01961652
H        2.07529989       1.25335414      -0.15873350       0.01001656       0.04021858       0.00118882
Cl      -1.83616160      -0.69623768       0.07099983       0.00299262      -0.00449212      -0.00790689
F        3.02449456       1.13063149      -0.33281566      -0.04097534      -0.00023719      -0.02100506
C        0.31159337       1.30892531       0.02659066       0.01728217       0.01808609       0.01643750
H        0.44505911      -0.57209690       0.92649456      -0.00878614      -0.01454893      -0.00164391
H        0.00453354       1.92289085      -0.81301121       0.02070823      -0.01781882       0.00826580
C        0.63505532      -0.80033492      -1.24877355      -0.00448414      -0.00491259       0.00739645
H        0.15824796      -0.38212408      -2.13872554       0.00132958      -0.00536075      -0.01077406
H        1.71528609      -0.65175848      -1.33387372       0.01086311       0.01735331       0.01025117
H        0.41929906      -1.86797339      -1.21234955      -0.02496798      -0.02699633      -0.01765167
N        0.13309397       1.98461785       1.25081891       0.00884669      -0.00356484       0.00726226
O       -0.05610142       3.20325960       1.21578095      -0.00291636       0.01060301      -0.03972947
O        0.22023464       1.36071786       2.30925231      -0.01871229      -0.02760601       0.02012318
