16
Properties=species:S:1:pos:R:3:forces:R:3 Coordinates=T from=T ORCA-job=T run=T Energy:=T 56.2340832=T energy=-80340.16180619576 pbc="F F F"
C        0.34411718      -0.00853682      -0.11222466       0.01139169       0.00543141      -0.00529702
H        1.61619230       1.54517942      -0.64333438       0.00378454       0.00294724       0.02342542
Br      -1.46631942      -0.34955154       0.64828424       0.01537412      -0.02378535       0.00022933
H        2.87331922       0.72840428       1.13708250      -0.00927698      -0.01064132       0.01004436
C        0.59437210       1.49651030      -0.23922338      -0.00811708      -0.02153528       0.00032290
H        1.06253889      -0.27423025       0.68110375       0.00576889       0.00428092      -0.01599390
C        0.55395374      -0.87130573      -1.33335816      -0.01070594       0.02761978       0.01568707
H       -0.11082622      -0.60875147      -2.15733050      -0.00660386       0.00687419       0.03118663
H        1.58834696      -0.72652439      -1.66478227      -0.02396712      -0.01272365       0.00789920
H        0.41821496      -1.92663569      -1.07977781       0.01826267       0.04087432      -0.00192043
N        0.58538557       2.23273739       0.97003559       0.01640035      -0.01815409      -0.01514349
H        1.47694396       1.92542181       1.40871559       0.00024645      -0.02296790      -0.00279291
H       -0.18353189       1.93075588       1.55968818       0.01610669       0.01327226      -0.03449750
N       -0.29924812       2.11631101      -1.28720624      -0.01247036      -0.03378143      -0.00938978
O       -1.17547049       2.87276518      -0.93444827       0.02047119       0.00691979      -0.02395595
O       -0.09162503       1.78704914      -2.44812550      -0.01446107       0.02919541       0.02665748
