12
Properties=species:S:1:pos:R:3:forces:R:3 Coordinates=T from=T ORCA-job=T run=T Energy:=T 1.2413616=T energy=-85780.93085403963 pbc="F F F"
C        1.09083596      -0.01546497      -0.03426944      -0.03840756      -0.00439110       0.00540899
H        1.34024806       1.96201299      -0.86718804      -0.00402707       0.01105027       0.00020345
Br      -2.50039681      -0.33178797       0.24245761      -0.01126049       0.00725703      -0.01121460
Cl       2.85251474      -0.23833931       0.48526647      -0.00326368       0.00978476      -0.01337849
C        0.76773609       1.45637952      -0.08228246       0.02242701      -0.01597354      -0.01401424
H        0.50832459      -0.49457167       0.75123431       0.00034272      -0.00927143       0.01882713
H        0.97630323       1.94054724       0.87508002      -0.01125650      -0.00347520      -0.02029309
H       -0.30575672       1.54148799      -0.28448821       0.01640434      -0.00798831       0.02470246
C        0.86374633      -0.72801935      -1.34336507       0.02157254       0.02095330       0.00853123
H       -0.20857991      -0.66575955      -1.55949831       0.01821165      -0.01824430       0.01896134
H        1.43855821      -0.26335257      -2.15160515      -0.00405486      -0.00720840      -0.00937928
H        1.13999255      -1.78318727      -1.27465093      -0.01242292       0.01810974      -0.00698260
