15
Properties=species:S:1:pos:R:3:forces:R:3 Coordinates=T from=T ORCA-job=T run=T Energy:=T 8.5692152=T energy=-29331.041561814345 pbc="F F F"
C        0.23449967      -0.10972250      -0.08092411      -0.01405624       0.00578459       0.02855640
H        1.36526019       1.60134467      -0.37088761      -0.02406818       0.00102391      -0.01774729
Cl      -1.47311427      -0.65935014       0.38019878      -0.01340780       0.03227398      -0.03250579
Cl       3.56348514       0.30434912       0.62405151       0.00103338      -0.00657143      -0.02012161
C        0.32293068       1.40030693      -0.09252700      -0.00626419      -0.00083665       0.01142764
H        0.87309827      -0.50288536       0.70960075       0.00809003       0.00197622       0.01612920
H       -0.33205955       1.80681832      -0.87546974      -0.01737958      -0.02599044       0.01895464
C        0.60194500      -0.73744029      -1.40104898       0.00219719       0.00594917       0.01951166
H       -0.03096562      -0.35860120      -2.21069703       0.03272993       0.00368859      -0.01200413
H        1.65026980      -0.48859306      -1.59165404       0.00289095      -0.01021885      -0.01730814
H        0.50937757      -1.82508093      -1.36437853      -0.00011714      -0.00284594       0.00138918
C        0.05980844       2.05784290       1.25068894       0.01285408      -0.00046213      -0.01029760
H       -0.95164970       1.85596404       1.61876692       0.03390579      -0.00259017      -0.00441379
H        0.78624645       1.69002515       1.98095597      -0.01915935       0.01367941       0.01059609
H        0.18628180       3.14314043       1.17810051      -0.00902530      -0.00905660       0.01208334
