16
Properties=species:S:1:pos:R:3:forces:R:3 Coordinates=T from=T ORCA-job=T run=T Energy:=T 47.9192841=T energy=-92846.87576650795 pbc="F F F"
C        0.03766915      -0.12955142      -0.07127441      -0.10573112      -0.03730802       0.00811540
H        1.55233903       1.32259169      -0.02713259       0.03919884       0.02714339      -0.02459672
Cl      -1.79232773      -0.27235533       0.03548413      -0.03693548       0.02928903      -0.02036177
Br       3.86654102       0.71246989      -0.23112077      -0.01739319       0.02306308      -0.02133064
C        0.44050175       1.32994148      -0.06683563       0.00995815      -0.02787430      -0.01128002
H        0.39751076      -0.59688403       0.84229686      -0.03527704       0.05950565       0.05869850
C        0.54076590      -0.86307273      -1.28525216       0.03570445      -0.02178578       0.00644975
H        0.22695701      -0.37644659      -2.20860672      -0.04999432       0.06397550       0.02448681
H        1.63460677      -0.85438135      -1.24113730       0.06593293       0.02094727      -0.03388106
H        0.18143638      -1.89382748      -1.27767590       0.03209282      -0.03949541       0.00993496
N        0.02233016       1.95550775       1.28014874       0.05212451       0.12080253       0.05571078
O       -0.55687424       3.02541475       1.23933303       0.03820505      -0.08648608       0.03574355
O        0.33262991       1.37337171       2.29500030      -0.05292305      -0.05376131      -0.04693961
N       -0.02678567       2.07369150      -1.17204713      -0.00978417       0.00375038       0.02839834
H        0.47821727       2.94786072      -1.24209387      -0.03523388      -0.07570472      -0.01069683
H       -1.01366250       2.28357523      -1.07043626       0.06911375      -0.00877664      -0.03480920
