13
Properties=species:S:1:pos:R:3:forces:R:3 Coordinates=T from=T ORCA-job=T run=T Energy:=T 37.2571110=T energy=-20965.26586317056 pbc="F F F"
C        0.18382856       0.02247789      -0.07691836       0.06169125      -0.06250646       0.02235522
H        2.32489559       0.87127650       0.24519541       0.00094579      -0.03954320      -0.00333074
Cl      -2.39110910      -0.40414293      -0.52023073       0.02519350      -0.02860796       0.00048201
F        3.24927886       0.70949432       0.13814909       0.03153655      -0.01637147      -0.00858351
C        0.47844451       1.34743581       0.06601372      -0.07062992      -0.03520910       0.00886218
H       -0.06977330      -0.55550187       0.80423631      -0.01204265       0.07683955       0.00509029
H        0.70666540       1.94324141      -0.81429914      -0.00503375       0.05266149       0.01206933
C        0.56122457      -0.74452470      -1.30164351      -0.03883571      -0.03600862      -0.01782386
H        0.05554971      -1.70670301      -1.31295059      -0.04220542      -0.01860705      -0.03477798
H        0.26844107      -0.20528953      -2.20411710       0.02558502       0.01432869      -0.01579574
H        1.64733881      -0.90922053      -1.32769548      -0.00641309       0.07627704       0.05793569
C        0.24984680       2.05845641       1.26954797       0.01439090      -0.04181201      -0.01968873
N        0.10969118       2.64531793       2.25822498      -0.00380532       0.04861838      -0.00626787
