17
Properties=species:S:1:pos:R:3:forces:R:3 Coordinates=T from=T ORCA-job=T run=T Energy:=T 37.3053583=T energy=-88354.23352955046 pbc="F F F"
C        0.20424436      -0.08889381      -0.15045680       0.00096147       0.00268936       0.01084309
H        1.55262071       1.42341772      -0.52630434      -0.01806147      -0.00163763      -0.02835794
Br      -1.73154602      -0.47082769       0.19716044       0.03651623       0.01224263       0.00593145
Cl       3.31910918       0.35348501       1.40568122      -0.00230149      -0.00432113       0.00417420
C        0.49669053       1.40621690      -0.20293191      -0.00588797       0.00698425       0.02720300
H        0.70389159      -0.49562270       0.72843201       0.00494994       0.01850316       0.00964360
C        0.62616183      -0.85548203      -1.38033757       0.00026586      -0.01425579      -0.00949189
H        0.08610997      -0.53431645      -2.27491528       0.00780861       0.01570160      -0.02229474
H        1.69942825      -0.70066815      -1.52888106       0.01147550       0.00768489       0.01089748
H        0.45706413      -1.92492001      -1.24676118      -0.01439710      -0.02794769      -0.01334529
N        0.37085690       1.96891978       1.13333550      -0.01877689       0.01284932       0.04285809
H        0.58308744       2.96082566       1.07984323      -0.00714455      -0.00576862      -0.03950551
H        1.14535163       1.56835371       1.66865135      -0.00414434      -0.01915139       0.01301279
C       -0.34678539       2.18240278      -1.19843867       0.00579774      -0.00542575      -0.00472285
H       -0.23102337       1.79193816      -2.21339894      -0.03492986      -0.00421024      -0.01782933
H       -1.40407950       2.14062660      -0.92326929       0.01635002       0.02376623       0.00038735
H       -0.03894789       3.23415457      -1.21841093       0.01518144      -0.01408633       0.01164714
