15
Properties=species:S:1:pos:R:3:forces:R:3 Coordinates=T from=T ORCA-job=T run=T Energy:=T 13.3021905=T energy=-77043.70237810661 pbc="F F F"
C        0.93412568       0.03646713      -0.11030145       0.03336812      -0.00545037       0.01042134
H        1.92488335       1.77605856      -0.91664594      -0.00577618      -0.00909748      -0.01481581
F       -1.71703149      -0.18803102      -0.06881282       0.00489691      -0.01478819      -0.01925485
Br       2.59730991      -0.49010418       0.93554790       0.00084398      -0.02543391      -0.00974477
C        1.01810577       1.53467543      -0.34376267       0.00305723      -0.00745526      -0.00022522
H        0.05562283      -0.20285664       0.50696259       0.02461698      -0.00191352      -0.01629509
H        1.13275828       2.02697432       0.62860488      -0.03977900      -0.00993288       0.00623721
C        0.82977657      -0.80248938      -1.35875693      -0.00276303       0.01350977       0.01648795
H       -0.22418267      -0.70146226      -1.64275605       0.00017756       0.02140273       0.03176519
H        1.51274191      -0.48252925      -2.15603940      -0.02126998       0.00047864       0.01544697
H        1.00668379      -1.85922535      -1.14189581      -0.00401077       0.02333625       0.00178316
C       -0.24907167       2.04095286      -1.03749207       0.00477943       0.00649206      -0.00888465
H       -0.19919624       1.86195825      -2.11821968      -0.01430020       0.00345640       0.00691968
H       -1.10708345       1.46172830      -0.64225516       0.01455095       0.00865240      -0.01944243
H       -0.37071082       3.12052669      -0.88342683      -0.00415654      -0.00130540      -0.01500679
