15
Properties=species:S:1:pos:R:3:forces:R:3 Coordinates=T from=T ORCA-job=T run=T Energy:=T 159.5702899=T energy=-89793.60817186504 pbc="F F F"
C        0.94357865       0.01350827      -0.05056128       0.02755324      -0.05283678      -0.00445176
H        1.71182408       1.93105696      -0.59021881       0.00782561      -0.01217328      -0.00918261
Br      -2.68132366      -0.39655541      -0.08997145       0.01647181      -0.00030165       0.00130860
Cl       2.51036885      -0.31635484       0.82765889      -0.02018241       0.01627212       0.00273317
C        0.78299251       1.53377015      -0.15806052      -0.00774766      -0.02113059      -0.01615761
H        0.15441482      -0.40433636       0.57691606      -0.00130550       0.02362502      -0.01026835
C        0.95802127      -0.67123771      -1.39439354       0.01314796      -0.01015062      -0.00174242
H       -0.05060976      -0.64000356      -1.81298619       0.03336497       0.02128504       0.02842847
H        1.65446068      -0.18302107      -2.08317806      -0.00688949      -0.03085872       0.00476448
H        1.25002455      -1.71645626      -1.26762225      -0.02729144       0.01160316      -0.03678472
C        0.66859097       2.15807653       1.17602341      -0.01143569       0.03245978      -0.02296451
N        0.55683784       2.74856286       2.15990368       0.01032381       0.03201734       0.08578205
N       -0.31964375       1.85080255      -1.04120114      -0.02056695       0.00455665      -0.00560131
H       -0.52484374       2.84103393      -0.99036127      -0.01703787       0.01066383      -0.00484901
H       -1.16388979       1.33757185      -0.74948464       0.02064378      -0.02043360      -0.01017561
