15
Properties=species:S:1:pos:R:3:forces:R:3 Coordinates=T from=T ORCA-job=T run=T Energy:=T 65.7940604=T energy=-89793.67573467828 pbc="F F F"
C        0.15764821      -0.10689781      -0.13628218      -0.01329373      -0.02320556      -0.01360536
H        1.46634841       1.47178838      -0.51739352      -0.03105264       0.01275821       0.02675293
Cl      -1.58528749      -0.47662217       0.21715557       0.02662662       0.02666243      -0.00850995
Br       3.41184574       0.48916403       1.18916596       0.01212512       0.00115895       0.01116377
C        0.42313055       1.39837242      -0.15678802      -0.01258173      -0.01603122       0.00779485
H        0.72135942      -0.49232571       0.71439888      -0.00955116      -0.01825286      -0.02155082
C        0.58992614      -0.79838431      -1.40543561       0.00257182      -0.00629599      -0.01064937
H        0.08800231      -0.38531600      -2.28548237      -0.01952795       0.00008236       0.01348627
H        1.67125450      -0.66635402      -1.50834579      -0.00037674      -0.02399780      -0.01032960
H        0.37513101      -1.86726684      -1.35166115       0.01454737       0.00040346      -0.01599244
N        0.28646504       1.95206097       1.18367558       0.01856411       0.01974250      -0.01508782
H        0.42444710       2.95576058       1.12936198      -0.00171777       0.02499654       0.00008994
H        1.11370778       1.59666354       1.67393503      -0.00949380       0.01540254       0.01465809
C       -0.42014254       2.11032622      -1.11865785       0.02781005       0.01922405       0.02364751
N       -1.03093009       2.71185829      -1.89040280      -0.00811560      -0.03283766       0.01236944
