16
Properties=species:S:1:pos:R:3:forces:R:3 Coordinates=T from=T ORCA-job=T run=T Energy:=T 55.8444345=T energy=-22821.795237492108 pbc="F F F"
C        0.37515429      -0.02575144      -0.17635484       0.00183810      -0.00513949       0.00745275
H        1.55015207       1.66559503      -0.47596378       0.00295509      -0.01017918       0.02795233
Cl      -1.30913081      -0.52508396       0.33391872       0.02209277      -0.01356195      -0.01017279
H        2.76846122       0.96856201       1.28956319      -0.01249858       0.00442291       0.00274549
C        0.49891732       1.49772336      -0.19368925       0.00804415      -0.01385086       0.01923006
H        1.04493777      -0.27964613       0.65905092      -0.00115616       0.00765807      -0.00857730
C        0.78292628      -0.78337814      -1.41478748      -0.00131008       0.01322344       0.01200543
H        0.17480027      -0.53471370      -2.28570514      -0.01044962       0.00838360       0.03597514
H        1.82403370      -0.52129483      -1.62941324      -0.01656607      -0.02699993      -0.01933074
H        0.72876195      -1.85938927      -1.22609589       0.01031588       0.02300252      -0.02211099
N        0.29323932       2.14350227       1.04777483       0.01863604       0.02501915       0.00915062
H        1.18653730       1.94346307       1.53820853       0.02581655      -0.02491322       0.01239453
H       -0.45988718       1.69921254       1.56083712      -0.01796500       0.01790398      -0.03829570
N       -0.34357943       2.09706185      -1.29182956      -0.01697361      -0.01477476       0.00233315
O        0.01971454       1.87834009      -2.44017528      -0.01920017       0.01980005      -0.01561423
O       -1.33044458       2.73062774      -0.99266404      -0.01056448       0.01660514      -0.03911758
