16
Properties=species:S:1:pos:R:3:forces:R:3 Coordinates=T from=T ORCA-job=T run=T Energy:=T 57.3010743=T energy=-25522.438412430372 pbc="F F F"
C        1.13251316       0.06270869      -0.06910516       0.02951848       0.01461837      -0.02134493
H        1.76468210       2.01351861      -0.56272634      -0.00330687       0.00169581      -0.00111510
F       -1.52113016      -0.16774334      -0.10056778      -0.00225199       0.00080251       0.00452307
Cl       2.92322584      -0.09492464       0.41493536      -0.00595542       0.00033499       0.01112786
C        0.85294122       1.56100944      -0.15332026       0.00055294       0.01103594      -0.00036548
H        0.75804162       1.90525307       0.88550937      -0.00561985       0.00273092      -0.00121944
C        0.89538766      -0.72814938      -1.31998810       0.00591468       0.00714043      -0.00092831
H       -0.19304976      -0.72578595      -1.43997729       0.00821872      -0.01660269       0.01825482
H        1.39296424      -0.23648635      -2.15830472      -0.02353125       0.02051053      -0.00031751
H        1.26404599      -1.74691867      -1.20657823      -0.01349009       0.00402401       0.01243241
N        0.45060878      -0.61699352       1.14353141       0.00027321      -0.00817091      -0.01604553
O        0.21469548       0.06856809       2.11196238      -0.00953810      -0.01047772      -0.02434502
O        0.38325038      -1.82301653       1.10745742      -0.02320461      -0.00797695       0.02001940
N       -0.27606512       1.86532412      -1.01641307       0.00673359      -0.00049356      -0.00116723
H       -0.58371103       2.80613425      -0.79198729      -0.00620025      -0.01108335       0.00577710
H       -1.02481102       1.19163704      -0.71447448       0.02479230      -0.00517069       0.00525099
