15
Properties=species:S:1:pos:R:3:forces:R:3 Coordinates=T from=T ORCA-job=T run=T Energy:=T 53.6325947=T energy=-84044.44546168228 pbc="F F F"
C        0.92994944       0.02064903       0.11138841       0.00403604      -0.00691633      -0.02085418
H        0.65569699       1.93348198      -0.81164896       0.03912084       0.03694682      -0.00775388
F       -2.07131227       0.61679924      -0.78498485      -0.00579844       0.02045445      -0.00635768
Br       3.39961030      -0.18544441       0.43324748      -0.00855696       0.02095690      -0.01529725
C        0.54519394       1.35290104       0.09292019      -0.03262453      -0.00540832      -0.00725729
H       -1.27551915       0.86246538      -0.33789505      -0.00386015       0.02192892      -0.01512253
C        0.88939500      -0.69309199      -1.22331489      -0.01064082      -0.00117740      -0.00581612
H       -0.15275136      -0.80059279      -1.54204401      -0.01700254      -0.05580118       0.07063088
H        1.41793921      -0.10368985      -1.97347007       0.04693809      -0.02165484       0.04089743
H        1.36291537      -1.66965535      -1.14608879      -0.02504576       0.01340471      -0.04891257
C        0.61155872      -0.82219874       1.23409856       0.01531503      -0.02824325      -0.01651744
N        0.26126305      -1.59959657       2.01251708      -0.00230080       0.00640781      -0.00476725
N        0.49228979       2.16759593       1.24804697       0.06310842      -0.04014315       0.03984897
O        0.38183293       3.37772972       1.06453632      -0.04682626       0.05651231      -0.02915762
O        0.55097977       1.64855285       2.35265233      -0.02008851      -0.00608252       0.02890140
