19
Properties=species:S:1:pos:R:3:forces:R:3 Coordinates=T from=T ORCA-job=T run=T Energy:=T 53.9581757=T energy=-80620.02963452523 pbc="F F F"
C        0.85072756      -0.03912474      -0.05050306      -0.00905395       0.02691521       0.00978827
H        1.62256871       1.86593402      -0.53100685       0.01088334       0.00814044       0.00509007
F       -1.54761110      -0.43517450      -0.33806361      -0.00164307       0.01841344       0.00697800
Br       2.81469090      -0.25660688       0.67719287       0.00892220       0.01303780      -0.02163249
C        0.66856966       1.49798811      -0.13466046      -0.00849608       0.02277658      -0.02588534
C        0.88494796      -0.75260363      -1.38704070       0.00624835      -0.00340446       0.01781596
H       -0.15033721      -0.77129029      -1.73046217      -0.00432557       0.01100799       0.02036098
H        1.54725770      -0.23413053      -2.08621307       0.00816125       0.02342924       0.02217889
H        1.24331927      -1.77484831      -1.26162949      -0.02098193      -0.03216790       0.00165117
C        0.05346983      -0.71169182       0.98270938      -0.01510889      -0.01150161       0.03837859
N       -0.19748311      -1.21766182       1.99862012       0.02256155       0.00218669      -0.04095317
C        0.44754899       2.12644513       1.23554848       0.00791329      -0.00314978      -0.00756350
H       -0.50452207       1.79818022       1.66052328      -0.01153442      -0.01232033      -0.04231151
H        1.24140459       1.85912156       1.93646361       0.00410623      -0.04028133       0.01283567
H        0.42904156       3.21786083       1.14449223      -0.01490291       0.00609297       0.00429274
C       -0.43323887       1.92733461      -1.10465687      -0.03217206      -0.00938735      -0.01918407
H       -0.17659920       1.67252421      -2.13793024       0.00774329      -0.00724228      -0.00269584
H       -1.35627226       1.39714334      -0.85454658       0.02096311       0.00716509       0.01815662
H       -0.55723320       3.01678379      -1.05280071       0.01416432      -0.01504738       0.00151525
