15
Properties=species:S:1:pos:R:3:forces:R:3 Coordinates=T from=T ORCA-job=T run=T Energy:=T 86.6272677=T energy=-89793.31821469021 pbc="F F F"
C        1.27541339      -0.04451411      -0.04790213      -0.02797699      -0.00203617       0.02215654
H        1.18963226       1.94202371       0.78440032       0.00258096      -0.01590757      -0.02475728
Cl      -2.70854965       0.85160875      -0.92293885      -0.00380388      -0.01308587      -0.00407770
Br       3.17213241       0.25304990      -0.64540853      -0.03382663      -0.01886744       0.02113197
C        0.57840501       1.31566307       0.12775681      -0.01473267      -0.00105682      -0.00444336
H       -0.36633101       1.08896034       0.64673437      -0.00578835       0.00125433       0.00630056
C        0.56973759      -0.89716488      -1.08494123       0.02236069      -0.00741270       0.00620350
H       -0.49674224      -0.95185153      -0.83278032       0.03343774       0.00587324      -0.00824767
H        0.65089875      -0.38825185      -2.04535713      -0.03935980      -0.00805539       0.00309405
H        1.00322736      -1.89589341      -1.14976596       0.01462270      -0.01386621       0.00111713
C        1.38456580      -0.71944572       1.23703254       0.01650892      -0.01368027      -0.00084095
N        1.43064741      -1.23985181       2.26544139       0.02045260      -0.00421025       0.01048970
N        0.33131121       1.93138029      -1.15042962       0.01550689       0.02323355      -0.02351807
H        0.44345847       2.93243075      -1.08306871      -0.01230845       0.03013500       0.01201884
H       -0.65008879       1.74350104      -1.38451209       0.01031378       0.04115777      -0.00815908
