15
Properties=species:S:1:pos:R:3:forces:R:3 Coordinates=T from=T ORCA-job=T run=T Energy:=T 55.3978746=T energy=-9965.314605329608 pbc="F F F"
C        0.43600859       0.02053950      -0.02273359       0.02302765      -0.01095746       0.00570323
H        1.31656276       1.91674414      -0.41817120       0.01127536      -0.01675641       0.01760579
F       -0.86714896      -0.44718372       0.36071521       0.01103274      -0.03921102      -0.02134154
H        1.45751570      -1.61411759       1.00949852      -0.01081489       0.01787523      -0.01692091
C        0.34249716       1.53569857      -0.09223987      -0.00257354      -0.00929964       0.00714370
H       -0.39227469       1.82455780      -0.86018675      -0.01957262      -0.00994048       0.01065420
C        0.71554093      -0.61986556      -1.35946743       0.00853597       0.00007102      -0.02016714
H       -0.07555327      -0.41320430      -2.08993404      -0.03447602       0.01847026       0.00889139
H        1.66617118      -0.25151169      -1.75684554       0.01963344      -0.01500618      -0.01989205
H        0.79849269      -1.70571510      -1.23400604       0.01424414      -0.00550729       0.00155685
C        1.45519437      -0.45943453       1.04904595      -0.01028198      -0.01928206       0.04153405
N        2.13825644       0.24101473       1.80798616      -0.00359558       0.02749516      -0.01256017
N        0.01841065       2.16638092       1.18003455      -0.00053225       0.03349377      -0.00021783
H        0.80101611       1.84941199       1.77043314      -0.00590695      -0.01175418      -0.00821688
H       -0.78858272       1.66287330       1.54079823       0.00559543       0.02275096       0.01327105
