16
Properties=species:S:1:pos:R:3:forces:R:3 Coordinates=T from=T ORCA-job=T run=T Energy:=T 191.6698147=T energy=-92301.210041801 pbc="F F F"
C       -0.01955028      -0.24886041       0.07404263       0.01555081      -0.15446067      -0.17242200
H        1.50489706       1.23196565       0.18118930       0.12689979      -0.06824557      -0.01698199
Cl      -1.83894449      -0.38607578      -0.05381342      -0.07225325       0.06857371       0.03009266
Br       3.50619811       1.73365462      -1.25546814      -0.13375618      -0.00799047       0.00533368
C        0.39818907       1.24121728       0.13521744       0.11324312      -0.10936585      -0.16270601
C        0.57693562      -0.93194690      -1.16017647      -0.13668839       0.06992628       0.11371147
H        0.12958390      -0.47507371      -2.03909867      -0.04765020       0.08702631      -0.05636725
H        1.65380245      -0.76689068      -1.22819498       0.09809217       0.07390231       0.19947873
H        0.35401647      -2.00166891      -1.15317059       0.00000985       0.06198166       0.05536806
C        0.32791904      -0.95111234       1.30535961      -0.14227436       0.18350112      -0.20703016
N        0.55373183      -1.50800969       2.28558766       0.19117876      -0.17140213       0.23228124
C       -0.07088976       1.96919254       1.29897790      -0.26444570       0.31777768       0.77006094
N       -0.42301161       2.65937293       2.15929030       0.09564517      -0.37723287      -0.33770008
N        0.04405780       1.93851222      -1.07515183       0.03751029      -0.15205171      -0.16613270
H        0.91067260       2.32214986      -1.43738902       0.17333936       0.13264517      -0.25507714
H       -0.61972692       2.67613280      -0.89838865      -0.04938297       0.04113084      -0.03947069
