15
Properties=species:S:1:pos:R:3:forces:R:3 Coordinates=T from=T ORCA-job=T run=T Energy:=T 29.2803135=T energy=-23825.302256005747 pbc="F F F"
C        0.21578506      -0.17373273       0.04937749       0.70265854       0.79911360      -0.01822286
H        1.89388967       1.55078439      -0.75251355       0.84603111      -0.23986104       0.11838361
Cl      -1.54930773      -1.00396469       0.65682422      -0.76858104      -0.14150699       0.08464563
H        2.47495101       1.21209580      -1.08000510       0.70901391       0.11736706      -0.19738226
C        0.20734070       1.26227805       0.11952934      -1.11381004       0.41728602       0.19894561
H       -0.04959575       1.75646722       1.05869737       0.20157217      -0.44015362      -0.12711584
C        0.51831388      -0.93206526      -1.22303862      -0.09882121       0.24023747      -0.16957825
H        0.01080649      -0.48057516      -2.05951943      -0.29538130       0.06158630      -0.30294967
H        1.58684961      -0.88021332      -1.42562891       0.15883169       0.03643024      -0.02903626
H        0.21790350      -1.96562291      -1.07288415       0.07226041      -0.09179776      -0.18602884
C        1.05274628      -0.79364959       1.05751565       0.61008399      -0.59494963       0.88388723
N        1.77901993      -1.41070291       1.72268223      -0.50626042       0.68362143      -0.35350882
N       -0.06994861       2.16036838      -0.92453326      -0.33149414       0.49840696      -0.32654531
O       -0.57962241       3.27308895      -0.63741018       0.48092219      -0.97518402       0.13951463
O        0.31474904       1.92493368      -2.08706662      -0.65625617      -0.36600383       0.28749439
