16
Properties=species:S:1:pos:R:3:forces:R:3 Coordinates=T from=T ORCA-job=T run=T Energy:=T 105.0290950=T energy=-12474.859753256826 pbc="F F F"
C        1.08480080       0.08681677       0.22007275       0.00496595      -0.04037686       0.01663360
H        1.08323346       1.81840977      -1.00213698       0.03643655       0.05659373      -0.07493958
F       -1.07527457       0.50451068      -2.49730941       0.03955212      -0.03154069       0.05426672
H        2.12885357       0.12771042       0.56939191      -0.07755385      -0.04316668      -0.02081016
C        0.58657231       1.54793871      -0.06349175      -0.02684147      -0.04428746      -0.07359088
C        0.96262749      -0.77343030      -1.04197719       0.02274980       0.00856785      -0.00148419
H       -0.03564307      -0.65873612      -1.49728314       0.02410268       0.05665618      -0.02554232
H        1.65052310      -0.38875443      -1.80158106       0.09493359      -0.08321596       0.05713520
H        1.20564489      -1.81709412      -0.81922779       0.01777865       0.00743899      -0.04342301
C        0.29645080      -0.50959496       1.29355160       0.07192475       0.06864817      -0.00203908
N       -0.34779921      -0.99554168       2.11746577      -0.00578296      -0.01696537       0.10312648
C        1.13877988       2.46568809       0.95614597       0.05485961      -0.07716213      -0.07402894
N        1.62897845       3.17752682       1.72178515      -0.10803625      -0.03408062       0.02475690
N       -0.81088554       1.72075563      -0.28781498       0.01938605       0.13019445       0.05534168
H       -1.34243926       1.29669698       0.46395838      -0.02830546      -0.04500292       0.02502939
H       -1.03029213       1.23164057      -1.23250020      -0.13518512       0.07323304      -0.00947326
