16
Properties=species:S:1:pos:R:3:forces:R:3 Coordinates=T from=T ORCA-job=T run=T Energy:=T 183.7066316=T energy=-24977.23778945759 pbc="F F F"
C        0.99122121      -0.01276764       0.00259550       0.00425748      -0.02243835      -0.03648398
H        1.68789054       1.92046067      -0.50220587      -0.02528350       0.01977609      -0.01436883
F       -1.67439988      -0.18795835      -0.32162007       0.01672804       0.00817647       0.01754396
Cl       2.77658586      -0.17420530       0.52499342      -0.00747746       0.04286098       0.03087060
C        0.74586490       1.52433392      -0.09887424       0.01581699      -0.08517375      -0.01341145
C        0.83487458      -0.70586226      -1.33741192      -0.01666281       0.01697250       0.00412681
H       -0.24865742      -0.78968566      -1.47262499       0.00037215      -0.03084909       0.00755553
H        1.26758799      -0.10218018      -2.13717357       0.09046713      -0.01989798       0.04942592
H        1.31844000      -1.68517703      -1.29301712      -0.08968737       0.01380079      -0.06091396
C        0.24925946      -0.70295512       1.06377748       0.04041709       0.14929902      -0.00734371
N       -0.06820106      -1.28502437       2.00812595      -0.02941845      -0.07133135       0.03764984
C        0.60862467       2.14717919       1.23669737      -0.01086173      -0.04968270       0.01522166
N        0.47322809       2.74426431       2.21484236       0.01890666       0.01501088      -0.02006929
N       -0.33610729       1.82130702      -1.00046269       0.02084187       0.00138493      -0.04981544
H       -0.60772853       2.79004956      -0.89753832      -0.05856500       0.02554449       0.04736768
H       -1.12430323       1.14915178      -0.75912872       0.02740620      -0.00666792       0.01134313
