15
Properties=species:S:1:pos:R:3:forces:R:3 Coordinates=T from=T ORCA-job=T run=T Energy:=T 31.2759044=T energy=-93849.2900387486 pbc="F F F"
C        1.10426089      -0.03743732       0.13871880       0.02112973      -0.00973179      -0.01968290
H        0.68179417       1.86249692      -0.76837213       0.01420822       0.00383204       0.01482920
Br      -2.65109770       0.35426379      -1.20641517       0.02089089       0.00293290       0.00201213
Cl       2.90821316       0.29275883       0.31424237      -0.01677085      -0.02616236       0.01542915
C        0.36600041       1.28419707       0.09683773      -0.01425928      -0.00918295      -0.01012840
H       -0.72767417       1.09576355      -0.01939228      -0.02512836      -0.03321161      -0.02153216
C        0.87601529      -0.76104374      -1.18227805      -0.01394095      -0.01412112       0.00170873
H       -0.20463681      -0.85400501      -1.34854801      -0.01315668       0.00063521       0.01016762
H        1.30333067      -0.17097732      -1.99605973      -0.01800457      -0.01726157       0.01228005
H        1.34571296      -1.74524515      -1.16414469       0.01210630       0.01308310      -0.00289085
C        0.73572183      -0.91578436       1.24876671       0.02672602       0.03575225       0.00194014
N        0.47263024      -1.69770389       2.05253191       0.00346138       0.02011828      -0.03126442
N        0.56472678       2.15361329       1.27807284      -0.00244938       0.00862155      -0.00307161
O        0.55525770       3.34996130       1.06975182       0.00597953       0.00999080       0.03478975
O        0.67669985       1.63166974       2.36724205       0.00347530       0.00430994      -0.01545554
