18
Properties=species:S:1:pos:R:3:forces:R:3 Coordinates=T from=T ORCA-job=T run=T Energy:=T 191.0071061=T energy=-33343.67371942663 pbc="F F F"
C        0.01876647      -0.12990011       0.01690942       0.02121382      -0.03136919      -0.05858915
H        1.59957937       1.24662573      -0.05114414       0.01102516      -0.05612449       0.11045429
Cl      -1.83880821      -0.12848199       0.06756635      -0.06608638       0.05071954      -0.06878270
Cl       3.70441777       0.46346332      -0.06042061       0.04999618       0.01101441      -0.02426001
C        0.49063450       1.33013573      -0.00116520      -0.03382140      -0.00967663      -0.01028143
C        0.48418344      -0.83992403      -1.25397058      -0.03704132      -0.01036830      -0.02793747
H       -0.33043342      -1.40939525      -1.70748209       0.07672713      -0.03015163       0.04976524
H        0.84448688      -0.10838367      -1.97869903      -0.06688281      -0.07706089      -0.01418339
H        1.30711365      -1.51521053      -1.00606785       0.00524132       0.10702383      -0.06528308
C        0.49876292      -0.83596048       1.26371905       0.00336444      -0.03970683       0.00815033
H        1.59167156      -0.73957301       1.28100670      -0.00829475      -0.07060483       0.06234815
H        0.07512651      -0.40293371       2.17145352       0.02684719       0.05486938       0.01079869
H        0.22377787      -1.89291014       1.22387199       0.03109087      -0.00944293       0.00391287
C        0.12743032       2.03184484       1.23141876      -0.04819506      -0.02989935       0.08842857
N       -0.21632940       2.62845104       2.15710825       0.04440023       0.09690251       0.08427791
N        0.04407874       2.05294188      -1.17570535      -0.06982487       0.21299896      -0.10216742
H        0.65686682       2.84746535      -1.32338198      -0.08483583      -0.07615325      -0.01537795
H       -0.90228321       2.40095882      -1.04601220       0.14602315      -0.08538951      -0.03320420
