16
Properties=species:S:1:pos:R:3:forces:R:3 Coordinates=T from=T ORCA-job=T run=T Energy:=T 265.7535743=T energy=-22035.139327981193 pbc="F F F"
C        0.05776032      -0.05566775      -0.06262330       0.03159915      -0.03093225       0.07357464
H        1.74463019       1.27130586      -0.29555654       0.19882148      -0.15750920       0.03601504
F       -1.34701090       0.09993685      -0.05133542      -0.03247960       0.00521607       0.11506164
Cl       3.93322412       0.23336018       0.37470140      -0.11420915      -0.02071859      -0.02649585
C        0.65830104       1.34463396      -0.14884698       0.01833985       0.07214927       0.07664062
H        0.53099777       1.86599967       0.80682772      -0.09668208      -0.01155090      -0.05527895
C        0.39669409      -0.92812138      -1.24662031      -0.01986435       0.03067183      -0.05345340
H       -0.32308125      -1.75025792      -1.28765039       0.08689631      -0.07525512       0.04778683
H        0.32126403      -0.37496323      -2.18012313       0.03335200       0.06551334      -0.19698838
H        1.40928213      -1.31918185      -1.12897007       0.03951995       0.04853287      -0.12743595
C        0.47567888      -0.73161312       1.21945787      -0.18197828       0.00711901       0.10133677
H        1.57036362      -0.75187843       1.29601326      -0.08686961      -0.06647907      -0.06266402
H        0.06927302      -0.19928927       2.08034582      -0.02416674       0.10917066       0.09630392
H        0.05364411      -1.74088519       1.22651796       0.16005039      -0.08201630       0.08163674
C        0.07253925       2.14773341      -1.20253479      -0.01835394       0.22940724      -0.23858812
N       -0.35831960       2.80807518      -2.04646350       0.00542027      -0.12482775       0.12225823
