17
Properties=species:S:1:pos:R:3:forces:R:3 Coordinates=T from=T ORCA-job=T run=T Energy:=T 35.4832585=T energy=-21030.34044809456 pbc="F F F"
C        0.09220840      -0.05474883      -0.01616756      -0.04441819       0.01072780      -0.00203922
H        1.70518316       1.19049207      -0.05000946       0.01341305      -0.02095268      -0.04122044
Cl      -1.82054091       0.02600993       0.01307922       0.03393772      -0.01960951       0.00320728
F        3.06784871      -0.12112368       0.03413820       0.00724373       0.00831381       0.00881976
C        0.60905810       1.36825361      -0.04327257      -0.01181119       0.01000380      -0.00287866
H        0.33258957       1.86244392       0.90318775      -0.01822279      -0.00484862       0.04516767
C        0.52908644      -0.81394497      -1.24310716      -0.01310075      -0.00438143       0.01070769
H        0.15156537      -1.84038890      -1.23297891      -0.00808137      -0.02221642       0.00207849
H        0.21925677      -0.30854322      -2.15865675       0.00475294       0.01844429       0.01201141
H        1.63071724      -0.79862850      -1.14443915      -0.00135923      -0.00830725       0.00796606
C        0.55698067      -0.74122673       1.24247863      -0.01181827       0.00585138      -0.01382126
H        1.66217745      -0.71509844       1.12951935      -0.00860487       0.00898440       0.01482245
H        0.23755686      -0.20362210       2.14118929       0.01303824       0.00943451      -0.00718030
H        0.18878468      -1.76994213       1.29606011       0.00975936      -0.01236134      -0.01126835
N        0.17851787       2.10269580      -1.22579158      -0.00881985      -0.00431994      -0.03633847
H        0.65106667       2.99803855      -1.25201885       0.01166000      -0.01870404       0.00845730
H       -0.81753748       2.28594449      -1.15332520       0.02341993       0.03879024       0.00631211
