18
Properties=species:S:1:pos:R:3:forces:R:3 Coordinates=T from=T ORCA-job=T run=T Energy:=T 83.1347519=T energy=-81057.87970333108 pbc="F F F"
C        0.99793807      -0.02503443       0.12978204       0.00511314       0.00373796      -0.01156779
H        1.79448195       1.73137525      -0.74938664      -0.00000928      -0.00705832       0.01191498
Br      -2.68686270      -1.70092094      -1.28325603      -0.00219792      -0.02871223       0.00847901
F        2.31922628      -0.29500918       0.61037465       0.00778322       0.00541009       0.00475667
C        1.03120742       1.51539173       0.01842477      -0.00575174       0.00366080      -0.00618615
C        0.85006116      -0.69257694      -1.21256090      -0.00247832      -0.00044825      -0.00379928
H        1.12138255      -1.74638992      -1.12095992       0.00487928       0.00107513       0.03013824
H       -0.19849732      -0.67847649      -1.53521407      -0.00284551       0.01753838      -0.04317888
H        1.49662838      -0.23258251      -1.96780240       0.00742065       0.01133890       0.01334912
C        0.01574856      -0.54332617       1.14929381       0.01707730       0.00146392      -0.01646949
H        0.04882506       0.05400556       2.06273367      -0.00452394      -0.00976406      -0.00784123
H       -0.99424884      -0.55536372       0.72371679      -0.00499486       0.01074686       0.02000719
H        0.27142359      -1.57976864       1.38079198      -0.01407317      -0.00502912       0.00593098
N        1.35068148       2.10198568       1.31574648      -0.00474346       0.00879480      -0.01797561
H        1.45810230       3.10395589       1.21923332       0.04241479       0.00186199       0.02248032
H        2.23737217       1.71062218       1.61116868      -0.01895953       0.01323996      -0.00544660
C       -0.20857897       2.11319859      -0.47646600      -0.00728893      -0.01700916       0.00124781
N       -1.12401222       2.68980655      -0.87128656      -0.00228416       0.00842327       0.01179212
