20
Properties=species:S:1:pos:R:3:forces:R:3 Coordinates=T from=T ORCA-job=T run=T Energy:=T 51.2090515=T energy=-9596.072671463915 pbc="F F F"
C        1.15935030       0.07793869       0.13048272      -0.02079905      -0.00716722       0.03512588
H        1.58775270       2.02202155      -0.59803441      -0.01362262      -0.00010016      -0.02955795
F       -1.87988222      -0.56188392      -0.80473772      -0.00895560      -0.00598790      -0.00589557
H        2.19695999       0.10926760       0.50836461      -0.01419618       0.00819284      -0.01345744
C        0.73780789       1.55066970      -0.06104769       0.00195389       0.00081338       0.01729447
C        1.12578456      -0.66138192      -1.20702107       0.01153805      -0.00114098       0.00661894
H        0.07215180      -0.82580913      -1.46789368      -0.00753872       0.00033175       0.01955558
H        1.61691057      -0.09017818      -2.00294523       0.01798862       0.02013420      -0.01198519
H        1.62727036      -1.63374097      -1.12126254       0.00902347      -0.03228101      -0.01096937
C        0.28306890      -0.68453274       1.12438243      -0.01112127      -0.02126203       0.00837024
H        0.64665039      -1.71617843       1.22246559       0.00656141      -0.00484180       0.00911681
H        0.29139199      -0.24190714       2.12864998       0.00330978       0.00755898      -0.02625011
H       -0.73778822      -0.72335686       0.70795260       0.00566868      -0.00025261      -0.00094445
C        0.62819410       2.28960791       1.27328440      -0.00637643       0.01978554       0.01342787
H       -0.21650557       1.90945433       1.85485138      -0.00309719       0.00095661       0.01783127
H        1.53817117       2.20503657       1.88347018       0.01044123      -0.01671009      -0.01601433
H        0.44907795       3.35731285       1.09410288       0.01110543       0.02565229       0.00738053
N       -0.46507995       1.68029763      -0.86508158       0.01708256      -0.00877087      -0.01267577
H       -1.02129168       2.45557759      -0.52364512      -0.00891632      -0.00447525       0.01273459
H       -1.07114509       0.81451161      -0.83507029       0.00000780       0.01237265      -0.01877774
