17
Properties=species:S:1:pos:R:3:forces:R:3 Coordinates=T from=T ORCA-job=T run=T Energy:=T 31.2084239=T energy=-34892.056724646274 pbc="F F F"
C        0.05008812      -0.06082617       0.02868224      -0.04652324       0.06375062      -0.02102984
H        1.76076278       1.19663861       0.25285118       0.00319305      -0.03717349      -0.02634180
Cl      -1.79302354       0.14891708      -0.08621023       0.00046012      -0.02737466       0.00028455
Cl       3.79973003       0.09653164       0.01567191       0.00514053      -0.00393018       0.00268513
C        0.67010469       1.32709872       0.10425968      -0.00316946       0.03923891       0.05014813
H        0.48065101       1.88870657      -0.80890364       0.00461859      -0.02140405       0.04624672
C        0.51491611      -0.69478795      -1.26959314       0.01262444      -0.00275182      -0.00361035
H        0.09166112      -1.69723209      -1.36920603       0.00067631       0.00190621      -0.00872588
H        0.21261892      -0.10049789      -2.13634869      -0.00037783      -0.00385143       0.03374369
H        1.60990044      -0.76003534      -1.24654424      -0.00809868      -0.00508435       0.02753304
C        0.34949272      -0.94804646       1.21740437       0.02618623       0.01922997      -0.01104466
H        1.43869650      -1.02273453       1.30284419       0.03074882      -0.01438717       0.00476860
H       -0.04785762      -0.53145870       2.14092212       0.00720221      -0.01245402      -0.00055378
H       -0.06863851      -1.94487934       1.05431387      -0.00961200       0.01451760      -0.00521195
N        0.16750593       2.19419638       1.20717956      -0.07908933       0.02261056      -0.02249533
O       -0.27897021       3.28072363       0.89057337       0.05584963      -0.01666448       0.01576472
O        0.25264220       1.79474380       2.35121631       0.00972235      -0.01157545      -0.08653511
