19
Properties=species:S:1:pos:R:3:forces:R:3 Coordinates=T from=T ORCA-job=T run=T Energy:=T 68.4361568=T energy=-151433.86825233875 pbc="F F F"
C        0.05371086      -0.08858663       0.05462199      -0.01217641       0.02663476       0.00584123
H        1.69327293       1.23120241      -0.13956225       0.00314717      -0.01855656      -0.02757486
Br      -1.96974620       0.03136014       0.25583057      -0.00123010      -0.01157537      -0.00905685
Br       3.94557883       0.23431162      -0.21494169       0.01322310       0.02338586       0.02389233
C        0.60491720       1.34308813       0.04517161       0.01428735       0.01111716       0.02625801
C        0.34787499      -0.88869789      -1.19535982      -0.01248715       0.01283701       0.00522423
H       -0.07341150      -0.44353248      -2.09365201      -0.00517493      -0.01798571      -0.00140554
H        1.44014070      -0.92810490      -1.30219497      -0.02339939       0.01071248      -0.01787146
H       -0.04099513      -1.90367096      -1.07992357       0.02189860       0.00961759       0.01571877
C        0.58948250      -0.80273273       1.27944307      -0.01181929       0.00866780       0.00390662
H        1.68436728      -0.82051848       1.19303779      -0.00594926       0.00156617      -0.01810248
H        0.32423223      -0.28097702       2.19631246      -0.00794731       0.01170863       0.00997068
H        0.21418395      -1.82824169       1.30910379      -0.00810387       0.00076060      -0.00220617
N        0.37367513       2.04346331       1.24871262      -0.00070444       0.01412336       0.03320068
H       -0.59083231       2.34486233       1.31242321      -0.01320693      -0.02442678      -0.02769718
H        0.96683656       2.85958945       1.30391117       0.03363803      -0.02072773      -0.00430629
N        0.08987058       2.14446335      -1.17825397       0.02132432      -0.01274351      -0.01069235
O       -0.59855352       3.12228701      -0.95884752       0.01914171      -0.02482504       0.03198150
O        0.43551275       1.77936324      -2.27917370      -0.01865907       0.01192356      -0.03193862
