18
Properties=species:S:1:pos:R:3:forces:R:3 Coordinates=T from=T ORCA-job=T run=T Energy:=T 16.6593485=T energy=-20594.660690393073 pbc="F F F"
C        0.54755358      -0.02725803      -0.01163296      -0.01945516       0.04592942      -0.09141060
H        2.38047965       0.88289887       0.09657478      -0.17547485       0.07594157       0.01641128
Cl      -2.86178553      -0.75405174      -0.03446970       0.05187491      -0.04539568       0.01227587
F        3.31059246       0.97529171       0.22139146       0.16690681      -0.04089270       0.00926965
C        0.42188354       1.30645985       0.02130670       0.12073599       0.04010962       0.00775137
H        0.42258778       1.83060962      -0.93280244      -0.10980064       0.02490743      -0.01911545
C        0.68435558      -0.72182152      -1.33158892       0.06467169      -0.03486400      -0.02293925
H       -0.10251158      -1.47916316      -1.42604857       0.00309320       0.12637866      -0.02028991
H        0.58791188      -0.00384564      -2.15662271      -0.03055241      -0.18565461       0.09851999
H        1.66098647      -1.21486366      -1.42864140      -0.01581526      -0.07657341       0.04303267
C        0.54691048      -0.86862477       1.22912961      -0.00171669       0.02396440      -0.01903431
H        1.56609052      -1.15933141       1.51558361       0.04701544      -0.04986308      -0.08980840
H        0.10577454      -0.33236722       2.06605237      -0.05756288      -0.01176702       0.07430413
H       -0.05186028      -1.76741930       1.08352175      -0.05498554      -0.01984607      -0.08813207
C        0.17457782       2.13943360       1.23455579       0.05433711       0.07370462       0.03218531
H       -0.90047198       2.17867886       1.44443421       0.00261857      -0.02370587       0.03934477
H        0.68854681       1.75737042       2.11757994      -0.05291120      -0.06895091       0.07615487
H        0.52932320       3.16070793       1.09134272      -0.00746578       0.13909436      -0.06485050
