15
Properties=species:S:1:pos:R:3:forces:R:3 Coordinates=T from=T ORCA-job=T run=T Energy:=T 11.3378776=T energy=-19525.642696647777 pbc="F F F"
C        0.15278228       0.00907378      -0.00696000      -0.01939034       0.00036542      -0.00158316
H        1.85972532       1.15796047       0.02087471       0.02127735      -0.03179135       0.00014834
Cl      -1.73479631       0.20073699      -0.04190467      -0.00040408       0.00191029       0.00053380
F        3.12374987      -0.29422389       0.04774573       0.01515500      -0.00656389      -0.00139978
C        0.77558132       1.38381157       0.00053643       0.00582138       0.00531341       0.00017941
H        0.47930301       1.95655312       0.88368639      -0.00747704       0.01762186       0.03452296
H        0.51172746       1.95192634      -0.89580817      -0.00675904       0.01627872      -0.03461570
C        0.57960407      -0.75564476      -1.23648096       0.00327911      -0.00467401      -0.00697028
H        0.13949855      -1.75631875      -1.26117095      -0.01292789      -0.03650801       0.00243625
H        0.31064843      -0.22627538      -2.15470668      -0.00819877       0.02149399      -0.03138266
H        1.67946803      -0.80993467      -1.11836988       0.02115776       0.01197925       0.02463477
C        0.53593620      -0.74907648       1.24084794       0.00326686      -0.00436521       0.00609773
H        1.63939839      -0.80327761       1.16146159       0.02318066       0.01047908      -0.02326653
H        0.23460819      -0.21497814       2.14617051      -0.00911136       0.02161602       0.03192432
H        0.09564658      -1.74985170       1.25530105      -0.01363370      -0.03656880      -0.00316853
