19
Properties=species:S:1:pos:R:3:forces:R:3 Coordinates=T from=T ORCA-job=T run=T Energy:=T 203.1193554=T energy=-32907.54455934347 pbc="F F F"
C        0.00698887      -0.13034752       0.05320247       0.06894145       0.04047204      -0.02569623
H        1.61260492       1.23401065      -0.06157925      -0.14893824      -0.00331762       0.08282442
Cl      -1.85020052      -0.13770642       0.16041207       0.01687809      -0.04719335       0.00107272
Cl       3.63816850       0.54485454      -0.54932436       0.09600210      -0.02983637      -0.04471666
C        0.49596589       1.32512002      -0.02370455      -0.08593253       0.07846607      -0.01607565
C        0.42885364      -0.92633890      -1.18758745       0.03668347      -0.01018091      -0.04295514
H       -0.41648431      -1.16410136      -1.83800754       0.05365235       0.08775908       0.04285862
H        1.18303710      -0.37712153      -1.75698772       0.03631948      -0.08989633       0.08890885
H        0.90104114      -1.86117115      -0.87199303      -0.07603386       0.02904872      -0.11005041
C        0.52974654      -0.78406279       1.31554501       0.01089534      -0.01928272       0.03572457
H        1.62334613      -0.69636829       1.29422527      -0.03156362      -0.09232849       0.00555484
H        0.14925946      -0.30438210       2.21908705       0.01046978       0.06065929      -0.02241566
H        0.24617252      -1.83851206       1.33478195       0.02765468      -0.02689437       0.04074241
C        0.13656020       2.06969347       1.17328950       0.05529782      -0.07232347       0.19811194
N       -0.13457395       2.66215496       2.12619591      -0.01340733       0.05565575      -0.04985968
C        0.06596891       2.11176156      -1.25567309      -0.03419926       0.09309198      -0.13725229
H        0.57558206       1.73271784      -2.14384934      -0.04657378      -0.05933186       0.01109736
H       -1.01904202       2.06863183      -1.40634987       0.11062176       0.06350456       0.00811724
H        0.37304498       3.15553315      -1.13619334      -0.08983320      -0.05882825      -0.06607779
