16
Properties=species:S:1:pos:R:3:forces:R:3 Coordinates=T from=T ORCA-job=T run=T Energy:=T 62.5027954=T energy=-79552.23315034484 pbc="F F F"
C        0.08424962      -0.05429031      -0.00693419      -0.01070665      -0.01752296       0.00273714
H        1.82992165       1.04138685       0.10847802       0.01789396       0.00466390      -0.01669003
Br      -1.96706819       0.04151966      -0.15305242       0.02872312       0.00832633       0.00706138
F        3.03105069       0.17533761       0.07422933       0.00917976       0.00093470       0.00966818
C        0.68142476       1.33443843       0.06954581      -0.00949857      -0.01468743       0.00038622
H        0.49344240       1.90060046      -0.84745347       0.00012139       0.00619046       0.00942340
C        0.58648774      -0.73903234      -1.25956397      -0.00357193       0.00211363       0.00459549
H        0.21108779      -1.76328481      -1.33042387       0.01087195       0.00855396      -0.00394646
H        0.29364834      -0.19227694      -2.16040722       0.00113304      -0.01002942       0.00500571
H        1.68193096      -0.72307188      -1.15270901      -0.01331472       0.02218375       0.00613411
C        0.42912270      -0.84916904       1.23185572      -0.00221782      -0.00016038      -0.00030593
H        1.52813857      -0.83668425       1.25102246      -0.01091183       0.00395706      -0.00184446
H        0.03776557      -0.37630179       2.13553356       0.01036754      -0.01575559       0.00411420
H        0.05643297      -1.87510283       1.17280225      -0.00551527       0.01547991      -0.00928525
C        0.30939909       2.12225681       1.21571878      -0.01380603       0.01106227      -0.01271746
N        0.05108618       2.76963171       2.13887222      -0.00063226       0.00328817      -0.00124541
