17
Properties=species:S:1:pos:R:3:forces:R:3 Coordinates=T from=T ORCA-job=T run=T Energy:=T 58.1210460=T energy=-22388.609602791865 pbc="F F F"
C        1.25636212      -0.09685481      -0.02852894       0.00453599       0.03281522       0.00367900
H        2.01393491       1.49420294       1.23721218       0.02094672       0.00801198       0.00115529
Cl      -2.74660508      -1.28862471       0.69613196       0.01612585      -0.02766183      -0.03276336
H        2.28598764      -0.36554611      -0.31522818       0.01155956      -0.01312438       0.00190013
C        1.40342465       1.38044468       0.34106138      -0.01619184       0.03715590       0.01891455
H        1.83240860       1.94868256      -0.48630276      -0.01203680      -0.03105972      -0.00678740
C        0.34238142      -0.31563758      -1.22936054      -0.00830918      -0.00449682      -0.00960449
H       -0.70896820      -0.25646024      -0.93119680      -0.02385725       0.02056128      -0.01713634
H        0.53456434       0.40760180      -2.02883402       0.00649047      -0.00347553      -0.01377669
H        0.49318281      -1.32034242      -1.63294052      -0.00354486      -0.03325949       0.00810887
C        0.83453523      -0.96562831       1.15220463      -0.00448496       0.01982922      -0.00502986
H        1.38808112      -0.70986796       2.06365684       0.00398595      -0.02054033      -0.01545921
H       -0.24252861      -0.88226887       1.34040376       0.01917286      -0.00332336       0.03327552
H        1.02728517      -2.01813045       0.92091290      -0.02991112       0.01184567       0.01436389
N        0.11233437       2.07244291       0.65295811      -0.01346489       0.01430338      -0.00987340
O       -0.48960751       2.56019603      -0.28147832       0.02050329       0.00410142       0.00267432
O       -0.22958274       2.11828488       1.81376035       0.01779564      -0.00300342       0.01911179
