18
Properties=species:S:1:pos:R:3:forces:R:3 Coordinates=T from=T ORCA-job=T run=T Energy:=T 295.3265011=T energy=-11033.881959674183 pbc="F F F"
C       -0.09712669      -0.18745302       0.01480086      -0.00749854      -0.02490726      -0.02018263
H        2.48312597       1.41632714       0.02616845       0.05861599      -0.01140656      -0.02945076
F       -1.57826625      -0.48467756      -0.11515927       0.01345208       0.05305030      -0.03729096
H        3.20595520       1.60457924      -0.14194594      -0.05258068      -0.00007650       0.00955223
C        0.17468074       1.24171491       0.06687174       0.13317159      -0.03627549       0.02966993
C        0.45160767      -0.85089841      -1.23690799      -0.03346719       0.00135942       0.00881620
H        0.09739786      -1.88621512      -1.29734612       0.01524664       0.01527053      -0.03036852
H        0.12555684      -0.29309224      -2.11576668      -0.01537425      -0.02862474       0.02164029
H        1.54772596      -0.84756274      -1.21980759      -0.03268972      -0.01107633      -0.00740181
C        0.30550008      -0.94984056       1.27690058      -0.00226688       0.00885929      -0.02477470
H        1.21050745      -1.53953136       1.09385292       0.04706749       0.04647473       0.04893636
H        0.49961744      -0.28318168       2.12049893      -0.09172833       0.00478445      -0.01240730
H       -0.49496868      -1.64136767       1.55201683       0.02817024      -0.02277488      -0.00735131
C        0.04953926       1.95557763       1.25841675      -0.01893710      -0.01164669       0.06705566
N       -0.01184217       2.60719813       2.23186379       0.00040125       0.02912361       0.04054884
N        0.14455599       1.99778488      -1.16370033       0.00607902      -0.08875478      -0.05494629
H        0.95485285       2.60665525      -1.22948376      -0.04983308       0.03408992      -0.02331996
H       -0.67992908       2.58691339      -1.23033759       0.00024392       0.03932770       0.01076154
