17
Properties=species:S:1:pos:R:3:forces:R:3 Coordinates=T from=T ORCA-job=T run=T Energy:=T 178.3337841=T energy=-24542.1088581879 pbc="F F F"
C        1.17432770      -0.02336595       0.00672779       0.01157918       0.01231652       0.00361005
H        1.57410221       2.05117216       0.01815294      -0.01009748      -0.01917612      -0.00069788
Cl      -2.35431318      -0.13586883      -0.03062012      -0.00829790      -0.01246796      -0.00436773
F        2.58482497       0.14254377       0.02529979       0.01048605      -0.06972814      -0.00330448
C        0.64442232       1.46400025       0.00561644       0.00987448      -0.01860887       0.00093470
C        0.82491582      -0.77157675      -1.25442965      -0.02939304       0.02895290      -0.00842268
H       -0.26543411      -0.84658891      -1.33401357       0.03802426       0.02041486       0.00761689
H        1.22715208      -0.25820286      -2.13095122      -0.01762780      -0.01087398      -0.02769836
H        1.25474612      -1.77492961      -1.20295261       0.03456700       0.00351055      -0.00574519
C        0.79765511      -0.78597148       1.25112683      -0.02747838       0.01717663       0.00943299
H        1.29838575      -1.75681963       1.23017383       0.01761524      -0.01581222      -0.00583170
H        1.11086331      -0.24949013       2.14944616      -0.00326797      -0.00568000       0.02605983
H       -0.28824322      -0.92987223       1.26761820       0.02870344       0.05162388       0.00408820
C       -0.05212418       1.88189231       1.22073308       0.01439065       0.00017086       0.01310182
N       -0.40681694       2.29495591       2.23570081      -0.04222855       0.01567856      -0.02010248
C       -0.02433190       1.88935548      -1.22276009       0.03027056      -0.02264729      -0.00661176
N       -0.35512195       2.30264259      -2.24556728      -0.04740418       0.02792694       0.01500720
