18
Properties=species:S:1:pos:R:3:forces:R:3 Coordinates=T from=T ORCA-job=T run=T Energy:=T 257.7296046=T energy=-23539.89121509266 pbc="F F F"
C       -0.00841639      -0.12047607      -0.09788801      -0.04712310      -0.03778372       0.04225668
H        1.60207649       1.26114640      -0.40516601      -0.05008893      -0.05464477       0.04791441
F       -1.41015556      -0.06022344      -0.20405133      -0.10364701       0.10375803      -0.07711293
Cl       3.63189890       0.76179293       1.15305169      -0.04866893       0.00928517      -0.00157432
C        0.55360918       1.32816948      -0.06364171      -0.02957574      -0.02172816      -0.04853889
C        0.51030553      -0.83279851      -1.33099252       0.14782202      -0.10402959      -0.00591870
H        0.00548976      -1.80190988      -1.44165225       0.08915371       0.14383932       0.02502306
H        0.32819864      -0.24344845      -2.24072358       0.05912099      -0.08909459       0.14457225
H        1.59188746      -1.00045002      -1.20948844      -0.25594371       0.03582290      -0.15245421
C        0.28740764      -0.88022230       1.17064415       0.22047853       0.01595622       0.06193238
H        1.36294855      -0.88047876       1.36469278       0.05676493       0.00935908       0.03450401
H       -0.21354931      -0.40325692       2.01243680      -0.01255354       0.07529437      -0.00930408
H       -0.06635520      -1.91246118       1.08307097      -0.02379109       0.02948481      -0.06537989
N        0.50824999       1.94481706       1.26182529      -0.08725994      -0.04346932       0.03348385
H        0.45218287       2.95132626       1.15715970       0.01350602      -0.02402552       0.00114714
H        1.42414833       1.75378269       1.68096367      -0.03536636      -0.04781397      -0.11741046
C       -0.17298199       2.13850496      -1.04559814      -0.11099321       0.26484922      -0.17889254
N       -0.71765702       2.81039488      -1.81434206       0.21308972      -0.26971352       0.28365067
