14
Properties=species:S:1:pos:R:3:forces:R:3 Coordinates=T from=T ORCA-job=T run=T Energy:=T 25.2539406=T energy=-7456.916701313291 pbc="F F F"
C        0.14218362      -0.09050494       0.03130817       0.02948290      -0.00881119       0.01193981
H        1.54889055       1.49309810      -0.08412326      -0.01012407      -0.01405427      -0.01156523
F       -1.27102521      -0.23124164       0.17229989      -0.02829874       0.01594999       0.01825438
H        3.30130512      -0.17083390       0.23780603       0.01177415       0.01656045       0.04017030
C        0.45848660       1.38771966      -0.00767561      -0.00765333       0.00383642      -0.01204542
H        0.11796813       1.85008441       0.92222778       0.00275604      -0.01460871      -0.00472121
H       -0.03323613       1.87425672      -0.85564769      -0.00409346       0.00404158      -0.02437648
C        0.51127881      -0.78750985      -1.26528142      -0.00092345      -0.00258185      -0.03049695
H        0.02136181      -0.33503875      -2.13472817      -0.01523018       0.04011444      -0.02392527
H        1.60325059      -0.72790646      -1.36117564       0.01676612       0.00234985       0.00150489
H        0.21804953      -1.84242080      -1.21968082      -0.00687989      -0.00645120       0.03668424
N        0.76939775      -0.65343021       1.18442501       0.01097017      -0.01163627       0.02402463
H        1.80052851      -0.47343574       1.03618499       0.01507282      -0.01301807      -0.00920702
H        0.67828524      -1.66595002       1.13069961       0.00817275      -0.00098413      -0.02549274
