17
Properties=species:S:1:pos:R:3:forces:R:3 Coordinates=T from=T ORCA-job=T run=T Energy:=T 161.9207829=T energy=-11469.712573203607 pbc="F F F"
C        0.12131466      -0.17003663       0.02427771      -0.00729916      -0.03388940      -0.07895650
H        1.62030211       1.29820336       0.02680588      -0.06362131      -0.01302463      -0.01449773
F       -1.29220185      -0.26521748       0.19918175       0.02319422      -0.01187718       0.03721731
H        3.16421550       0.38829402       0.35677259      -0.05642155      -0.04582532      -0.01705293
C        0.48907213       1.31637648      -0.00417003      -0.01596058      -0.08599292       0.01178778
C        0.41224356      -0.81929273      -1.31172440       0.02677231      -0.00134907       0.03253628
H       -0.17275893      -0.35390240      -2.10521843       0.03214173      -0.03946630      -0.06541075
H        1.47629753      -0.69112217      -1.51803065       0.12988827       0.02713985      -0.03718354
H        0.19276969      -1.88976973      -1.26677463      -0.07738242      -0.03731673       0.06351525
N        0.77614249      -0.73884752       1.15039707       0.01406820       0.02144363      -0.11073948
H        1.78635127      -0.46093918       1.05309501       0.02396995       0.08494682       0.03506421
H        0.74607975      -1.75188160       1.08565146      -0.03065887       0.02017052      -0.03251360
C       -0.00766646       1.97395267       1.20587192       0.01784431       0.13475778      -0.03507994
N       -0.42516244       2.61475026       2.07177600       0.01155070       0.01227930       0.05517256
N        0.00366685       1.97422275      -1.21616940       0.00478199      -0.03829304       0.14570620
H        0.37909088       2.91472283      -1.26642423      -0.02150729      -0.06148178       0.05498520
H       -1.00584637       2.05177333      -1.15344842      -0.00166876       0.07791612      -0.04457928
