18
Properties=species:S:1:pos:R:3:forces:R:3 Coordinates=T from=T ORCA-job=T run=T Energy:=T 72.7144626=T energy=-13167.971185994717 pbc="F F F"
C        0.15388595      -0.00096870       0.01373383      -0.02732304       0.00632864      -0.02095367
H        1.69145528       1.39053671      -0.16542293       0.00530334       0.04031915      -0.00993417
F       -1.28303864       0.02002173       0.12990020       0.00010100       0.02463384       0.02002251
F        3.06776291      -0.20622593       0.26461112      -0.01203495       0.02661770       0.00197524
C        0.60014952       1.46406864      -0.08900020       0.00243432      -0.02173862      -0.00688411
C        0.49514325      -0.80138428      -1.22426083      -0.01752070       0.00014100      -0.00174051
H        0.09286841      -1.81665240      -1.12108691       0.02464773      -0.01710222      -0.01200630
H        0.10664975      -0.34622625      -2.13769835       0.01330229       0.01652235      -0.00344354
H        1.59063788      -0.83304596      -1.23560378      -0.01722358      -0.03879786       0.01015866
N        0.71288251      -0.53407501       1.21297708      -0.00229375       0.00248954      -0.04921390
H        1.77251599      -0.45088198       0.99971647       0.00948350      -0.01034387       0.03818934
H        0.51760912      -1.53254640       1.22785696      -0.01446392       0.01225058      -0.01149734
N        0.26502349       2.22751257       1.11843361       0.01278335      -0.01359832      -0.02361367
H        0.72131861       1.73408787       1.88307138      -0.00810280       0.01380683       0.00257691
H       -0.72680769       2.05526206       1.28307591       0.02066319       0.00325118       0.03277562
N        0.03733209       2.08682335      -1.27696577       0.00867159      -0.01054443       0.01929915
H        0.27216207       3.07289269      -1.22561523      -0.00634482      -0.01363762       0.01923262
H       -0.97555639       2.03632521      -1.19621467       0.00392457      -0.03156580      -0.00127849
