15
Properties=species:S:1:pos:R:3:forces:R:3 Coordinates=T from=T ORCA-job=T run=T Energy:=T 68.1136520=T energy=-79989.62694617505 pbc="F F F"
C        0.61907039      -0.03527876      -0.15070783       0.01716725      -0.03177290       0.01134767
H        1.86197249       1.69022091      -0.27670843      -0.02028340       0.02987403       0.02162339
Br      -2.59630404      -1.08196230       1.00633220       0.00262436       0.00054128       0.01675209
F        1.51335100      -0.47693668       0.86379912       0.01249684      -0.01084672      -0.02949389
C        0.78774611       1.48689806      -0.14881110      -0.01099522      -0.00747549      -0.00613454
H       -0.39192949      -0.32476315       0.17113626       0.01894994      -0.00154211      -0.02025117
N        0.92146488      -0.62618577      -1.39316901       0.01173752       0.00514695       0.01665536
H        0.60652977      -1.58701324      -1.41214501      -0.01418144       0.02064564       0.00538909
H        1.91385540      -0.59246324      -1.59490101      -0.01520802       0.00842203       0.00341194
C        0.29851042       2.08339289       1.17540281       0.01445481      -0.00948410      -0.01241152
H       -0.72949055       1.76341594       1.36759634       0.02362466       0.01649299      -0.01834269
H        0.92644140       1.71327162       1.98717712      -0.02080824      -0.01613012      -0.00449859
H        0.34232958       3.17573318       1.15996476       0.00841327      -0.02473331       0.00375099
C        0.11425030       2.11450256      -1.28103421      -0.03688143       0.01040884      -0.02333898
N       -0.39034932       2.68073703      -2.14922319       0.02456403       0.00094941       0.00177610
