12
Properties=species:S:1:pos:R:3:forces:R:3 Coordinates=T from=T ORCA-job=T run=T Energy:=T 48.7713886=T energy=-21402.139338295572 pbc="F F F"
C        0.76615272      -0.22479891       0.29034342      -0.09275026       0.00815329       0.13645515
H        1.26060923       1.66913602      -0.32264833      -0.00593727       0.18412811      -0.00238941
F       -1.18184563       0.29464926      -2.28263625       0.01903033      -0.04757541       0.08738472
Cl       3.67346814       0.35164863       0.22014700       0.02299084       0.00912968      -0.03852433
C        0.41350734       1.23467711       0.22092483       0.06318004      -0.05711791      -0.03832258
H        1.44161077      -0.55142343       1.07793578      -0.01604642       0.02093040      -0.03864637
H       -0.50194839       1.35357490      -0.36657090       0.11432657       0.09059237      -0.04302379
N        0.29104527      -0.98710489      -0.60919397       0.07444941      -0.11987845       0.00687293
H       -0.62236136      -0.27492293      -1.72366072      -0.03958304      -0.07435839      -0.10980967
H        0.67378023      -1.92700972      -0.53643507      -0.11181016       0.03766876      -0.04758748
C        0.28365733       1.90532730       1.49943024       0.00202039      -0.10477924      -0.09449217
N        0.14100101       2.45651103       2.49991196      -0.04498923       0.06726397       0.16122951
