14
Properties=species:S:1:pos:R:3:forces:R:3 Coordinates=T from=T ORCA-job=T run=T Energy:=T 18.4140241=T energy=-19963.188133282034 pbc="F F F"
C        0.78343081      -0.06195214      -0.10534423       0.02404429      -0.06825033      -0.08523856
H        2.05063805       1.60831139      -0.58501319       0.09979590      -0.04725652       0.03186017
Cl      -2.55483496       0.02902885       1.15284946       0.01093861       0.00756079      -0.01830931
F        1.79718865      -0.58819106       0.75115720       0.00722190       0.10678149       0.06862783
C        1.02044590       1.41823659      -0.25638578       0.00873165       0.07760280       0.05936661
H       -0.17512126      -0.21513554       0.40079304      -0.06362656      -0.18342642      -0.05614867
H        0.90679400       1.84738401       0.73926805       0.04522139       0.15523654       0.09461884
N        0.80745119      -0.72264144      -1.35388847       0.06059660      -0.03844005      -0.19899111
H        0.49811562      -1.67938369      -1.27962520      -0.01992453      -0.10558991       0.08050922
H        1.74172939      -0.70195681      -1.74980658      -0.04946529      -0.03826435       0.03104009
C        0.02370832       2.02858454      -1.22667834      -0.00342206       0.07592494      -0.07196207
H        0.26472641       1.71918895      -2.24604040      -0.12790286      -0.06609795      -0.03822227
H       -0.99016579       1.68457776      -0.98940031       0.07518175       0.12434875      -0.00844432
H        0.05544899       3.12366860      -1.20131186      -0.05999187      -0.00774978       0.09668494
