15
Properties=species:S:1:pos:R:3:forces:R:3 Coordinates=T from=T ORCA-job=T run=T Energy:=T 88.7801503=T energy=-22471.427797237953 pbc="F F F"
C       -0.13198958      -0.05418864      -0.03663450       0.01618017      -0.06768736      -0.04357598
H        1.55284577       1.24283694       0.02626623       0.00240557      -0.05189389       0.01065581
F       -1.52151191       0.04450235      -0.21261033      -0.01639739      -0.01462869       0.01941281
Cl       3.56942632      -0.37808674      -0.42946176      -0.05834369       0.03344647      -0.01298069
C        0.45744614       1.36298003      -0.00135952      -0.02894937      -0.01086097      -0.03322723
H       -0.02511752      -0.54747199       0.93970658       0.05747636       0.08265150       0.03921663
N        0.41436144      -0.76853435      -1.13374620       0.00602695      -0.03247238      -0.00262729
H        0.17514010      -1.75014604      -1.05040807       0.00313455       0.03574287       0.00323490
H        1.44305628      -0.71016689      -1.09053610       0.00100979       0.01206992      -0.00053326
C        0.04175069       2.06338119       1.20440351      -0.00467257      -0.00212658      -0.03299155
N       -0.30221820       2.65015611       2.13511213      -0.02103226       0.03864830       0.11824717
C        0.03968778       2.15087499      -1.24563074      -0.01774211      -0.02554203      -0.03949056
H        0.33117406       1.57180612      -2.12136233       0.02342271       0.06211660      -0.05035527
H       -1.04564200       2.27159666      -1.25955954       0.02274268       0.03472933      -0.03294586
H        0.50776299       3.13879211      -1.28350530       0.02294560      -0.09624908       0.05801679
