15
Properties=species:S:1:pos:R:3:forces:R:3 Coordinates=T from=T ORCA-job=T run=T Energy:=T 68.6174142=T energy=-77286.79359745224 pbc="F F F"
C        0.43418572      -0.07427712      -0.06493401      -0.03070035      -0.27426932       0.00388613
H        1.61823411       1.55273275      -0.12994523       0.04771715       0.13734871      -0.05605617
Br      -1.56096361      -0.58442359       0.57262683       0.04702733       0.00119283      -0.03330821
H        2.85042775      -0.73676914       0.93956580      -0.10224552      -0.02350721      -0.02404515
C        0.52319476       1.44078133      -0.09459815       0.02845162      -0.05284546      -0.04204713
H        1.14405628      -0.49076935       0.69526261       0.00415232       0.03815579       0.01378796
N        0.71704605      -0.65257126      -1.29342009      -0.05346173      -0.14275130       0.00448391
H       -0.00419200      -0.55604688      -1.99426875       0.00954153      -0.02886948       0.07316460
H        1.01336251      -1.61818969      -1.18096367       0.02357916       0.20667061      -0.01190713
C        0.09900989       2.08515401       1.14231605      -0.01970422       0.12869771       0.04715424
N       -0.19332383       2.70634992       2.06930720      -0.01010984      -0.05364113      -0.03546734
C       -0.12568376       2.10496574      -1.30554774      -0.03281097       0.00933598      -0.05169008
H        0.31028475       1.69918511      -2.22208395       0.03516104       0.02428237       0.03340835
H       -1.20535786       1.92902624      -1.32663465       0.03071029      -0.01634801       0.07710854
H        0.04345522       3.18325827      -1.29816632       0.01288317       0.05007579      -0.00471171
