14
Properties=species:S:1:pos:R:3:forces:R:3 Coordinates=T from=T ORCA-job=T run=T Energy:=T 143.9776757=T energy=-26962.773289771223 pbc="F F F"
C        1.01581240      -0.07450806      -0.00178711       0.01278868       0.01666160      -0.02920286
H        1.75485688       1.91071004      -0.06372907      -0.00714994      -0.03662406      -0.00306076
Cl      -2.11325427      -0.39184760      -0.13587538      -0.00912043      -0.00668684       0.01023309
F        2.34989717      -0.23640826       0.38085586      -0.00643813       0.00210019       0.00859706
C        0.76149826       1.44575543      -0.05284041      -0.01302088       0.01418318       0.01344064
H        0.40128658      -0.51944507       0.78341032       0.01512284       0.03418641       0.00590785
N        0.86324119      -0.64585940      -1.30006709       0.00343826      -0.01025852      -0.01610819
H       -0.14978894      -0.65920819      -1.46329769      -0.01580967       0.03049937       0.02150766
H        1.12753779      -1.62223054      -1.21387388       0.01949108      -0.02107386      -0.02350298
N        0.16423602       1.97499973       1.24279746       0.03361347       0.03129743      -0.00262234
O       -0.47828317       2.99327274       1.18119878      -0.02398122      -0.01704754       0.02390241
O        0.48138954       1.38857097       2.25023490      -0.01426532      -0.00893737      -0.00383344
C        0.04238990       1.97025408      -1.20184078       0.01630806      -0.01273830      -0.00435600
N       -0.39647309       2.46739116      -2.14238825       0.01044101      -0.01164144       0.00176089
