13
Properties=species:S:1:pos:R:3:forces:R:3 Coordinates=T from=T ORCA-job=T run=T Energy:=T 30.3169490=T energy=-14650.365773026413 pbc="F F F"
C        1.06990409      -0.08077078       0.17068851       0.12334979      -0.06229725      -0.00618617
H        0.93638259       1.91659390      -0.64454949       0.05136958       0.03655453       0.11358795
F       -1.27540030       0.47278285      -1.77411105      -0.01134318       0.02873245       0.05948468
F        2.47105719       0.09046837       0.39894758      -0.04900286       0.08281230       0.02419173
C        0.42095985       1.27454247       0.07133596       0.01706245      -0.10347462      -0.07422891
H        0.73638077      -0.57681941       1.08839523       0.01801584      -0.06299882       0.02022760
H       -0.59709741       1.13990362      -0.39541144      -0.01591803      -0.04328782      -0.00139299
N        0.84846078      -0.79623764      -1.01894523       0.03881077      -0.04130583       0.02779713
H        0.01711061      -0.37536710      -1.51854299      -0.12763881      -0.12768277       0.00225039
H        0.69934027      -1.78066291      -0.83212543      -0.01854307       0.16164997      -0.05109934
N        0.35203630       2.01229443       1.34541033       0.08892257       0.07365011       0.00026778
O       -0.07621190       3.15217195       1.28028170       0.04571397       0.04955879       0.05029435
O        0.69027931       1.47721345       2.38917388      -0.17997518       0.00581331      -0.14966063
