13
Properties=species:S:1:pos:R:3:forces:R:3 Coordinates=T from=T ORCA-job=T run=T Energy:=T 110.5120698=T energy=-81428.39244244737 pbc="F F F"
C        0.94851996      -0.03469707       0.02788291      -0.04040404       0.07672309      -0.01047567
H        1.84850690       1.83203181      -0.33961634      -0.04372000       0.00178350      -0.07580162
Br      -2.20135887      -1.12374724      -0.18453342      -0.06074096      -0.04252188      -0.05740271
F        2.18183844      -0.23960903       0.63842770      -0.05666948      -0.06356775      -0.06307854
C        0.82785492       1.51040082      -0.09360243       0.00109400       0.01551504       0.04042378
H        0.17257478      -0.43668555       0.68710000       0.02142495       0.02620078       0.02311208
N        0.96047504      -0.61059834      -1.27839527       0.00617460       0.08327808       0.04905100
H       -0.03107116      -0.63067210      -1.54888559       0.04674844      -0.08731866       0.00337012
H        1.18631837      -1.59305696      -1.15161817       0.00534905      -0.02482457       0.00301905
C        0.48783190       2.12527153       1.19210078      -0.04897414       0.13279125       0.01833002
N        0.26767490       2.62798005       2.20554731       0.05209612      -0.10195554      -0.15543085
C       -0.03640768       1.99552593      -1.17295079      -0.00982322       0.05900471       0.12335077
N       -0.64582345       2.46187448      -2.03213463       0.09285320      -0.07922608       0.09489393
