16
Properties=species:S:1:pos:R:3:forces:R:3 Coordinates=T from=T ORCA-job=T run=T Energy:=T 48.8299526=T energy=-22823.592828245026 pbc="F F F"
C        0.10200393      -0.25357197       0.25499080      -0.04983086       0.03482654      -0.08321036
H        1.70491125       1.14420667       0.27112342      -0.02993670       0.00911978      -0.07158438
Cl      -3.13059815       0.25341049      -0.48436293       0.08243361       0.01325876      -0.00141969
H        3.08038524       0.69371439      -2.30665357       0.05046433       0.00415475      -0.03657669
C        0.61430536       1.16519481       0.16812081      -0.10025342      -0.01285284      -0.12379994
H       -0.86957408      -0.41688868       0.72671925      -0.02387360       0.18673580      -0.14428340
N        0.79199159      -1.15925628      -0.30516028      -0.04450170      -0.09997380       0.04018041
H        0.27401062      -2.03992684      -0.24642986       0.13228844       0.10092013      -0.01300050
H        2.65934377       0.17888087      -1.97062071      -0.00817686      -0.05508708       0.03226950
N        0.16735467       1.96448152       1.37144666      -0.00661395      -0.19678851       0.01366452
O        0.29090133       3.17093209       1.34241094       0.05348392      -0.02626867      -0.12541558
O       -0.23883867       1.33040435       2.31630828       0.01767034       0.05797681       0.35530608
C        0.19038463       1.88068560      -1.10480475      -0.03858159       0.15822385      -0.06423237
H        0.37471250       1.26142017      -1.98323360       0.02512257      -0.14394528       0.15210516
H       -0.87588728       2.10108757      -1.07298302      -0.14055465      -0.14613323       0.00373753
H        0.74110159       2.81182827      -1.22467124       0.08075150       0.11956173       0.07100858
