15
Properties=species:S:1:pos:R:3:forces:R:3 Coordinates=T from=T ORCA-job=T run=T Energy:=T 86.4164350=T energy=-17511.07223286574 pbc="F F F"
C       -0.09761988      -0.11271871       0.49017937       0.00988498      -0.25507882       0.00585300
H        1.14455055       1.03038903       1.89363439      -0.16238343       0.07702076       0.02793261
F       -1.41254879      -0.38792126       0.96732563       0.09602087       0.24106697       0.16591587
H        2.58048456       1.01145316      -1.23908231       0.13220023       0.07572147      -0.10174100
C        0.58183762       1.07827934       0.97594470      -0.12502698      -0.06862469      -0.00476429
H        2.18436495       1.14402209      -0.60600632       0.07113732      -0.04447172       0.02740826
N       -0.13882545      -0.36903836      -0.87950176       0.09762083      -0.04691385       0.02597095
H       -0.16570631      -1.36781853      -1.04853227      -0.15022849       0.06428255       0.03030203
H        0.64972434       0.04848361      -1.34328569      -0.00044749       0.11365977      -0.07281361
N        0.60352611      -1.35569584       1.23499058      -0.08454003      -0.22074566      -0.05351992
O        0.51138266      -2.41552242       0.63899613       0.22479120      -0.03989693       0.13409689
O        1.09104612      -1.23598807       2.33437520      -0.02158759       0.01161322      -0.09661564
N        0.14625621       2.31920103       0.59952910      -0.36341055       0.06723683      -0.01073509
O       -0.64030740       2.42458611      -0.36056922       0.09241267       0.13394320      -0.06263204
O        0.54673886       3.32114408       1.22122108       0.17838004      -0.08838419      -0.00433200
