19
Properties=species:S:1:pos:R:3:forces:R:3 Coordinates=T from=T ORCA-job=T run=T Energy:=T 80.4731962=T energy=-84111.34862411603 pbc="F F F"
C        1.13076463       0.03153909       0.08420184       0.07078482       0.18447030       0.01841982
H        1.70329035       1.89775545      -0.49032052      -0.02651812      -0.02415316      -0.04785013
Br      -2.40137613      -1.17035173      -2.00442603       0.08706306       0.01834947       0.01352136
F        2.48363923      -0.09326779       0.36678160       0.11815653       0.12007433       0.12326320
C        0.79068963       1.52776890      -0.00497488      -0.02688714       0.02020623      -0.04329140
N        0.86131303      -0.67545441      -1.06656801      -0.04411340      -0.02898418       0.02973910
H       -0.12319942      -0.65176642      -1.37231385      -0.04020770      -0.06500959      -0.04919996
H        1.13537558      -1.64325474      -0.94764705      -0.03740771      -0.02295140      -0.01973463
N        0.57660958      -0.76165473       1.37690620      -0.10582875       0.11954186      -0.10555115
O       -0.05319512      -0.21001860       2.24874450      -0.04480360       0.16000869      -0.05594857
O        0.86318585      -1.93370453       1.37046147       0.06176879      -0.32212329       0.03128915
C        0.66413904       2.30934185       1.30431487      -0.00775690      -0.07386376      -0.03393977
H       -0.30248493       2.14830901       1.77915340      -0.00055184      -0.02852441       0.01425833
H        1.43883913       2.03462903       2.02457907       0.01774746       0.04817587      -0.00334963
H        0.75622170       3.38148889       1.08312646       0.06645141      -0.12820940       0.00244395
C       -0.37901651       1.80309996      -0.95009128      -0.04024482      -0.03931888       0.08037005
H       -0.09372193       1.62760439      -1.98834550      -0.03248209       0.04606188      -0.01239358
H       -1.23953524       1.15504690      -0.77018899      -0.07721669      -0.00197628       0.09682567
H       -0.71627643       2.83877104      -0.84405293       0.08167260       0.01451278      -0.04094313
