15
Properties=species:S:1:pos:R:3:forces:R:3 Coordinates=T from=T ORCA-job=T run=T Energy:=T 121.9061247=T energy=-29470.336269018382 pbc="F F F"
C       -0.03724212      -0.12150831      -0.01854914      -0.03314287      -0.00293818      -0.01104488
H        2.06069100       1.05715480       0.02437619      -0.00796404       0.00747772       0.00274583
Cl      -1.88685688      -0.56742946       0.10620055       0.01552170      -0.00350992      -0.01729065
F        2.90438923       0.63684795      -0.17641357      -0.01161303       0.00985307      -0.00570181
C        0.25407755       1.31375130       0.04566033       0.02407474       0.00061771      -0.00003720
N        0.44086547      -0.73184011      -1.17854220       0.01890528      -0.02235615       0.02673381
H        0.32434511      -1.73510507      -1.11851668      -0.01232339       0.02975688       0.00007433
H        1.42337746      -0.50159288      -1.29656012      -0.03515464       0.00201328       0.00360219
N        0.46674170      -0.88757378       1.27518903       0.00782685       0.00404520      -0.00732434
O        0.58730717      -0.27612782       2.30369925      -0.01432193      -0.02254358       0.01657560
O        0.69932885      -2.06721141       1.12007976       0.02544622       0.00538523       0.00419974
C       -0.08133822       2.10252497       1.17758676       0.02177115      -0.02669748      -0.01382480
N       -0.32729285       2.81826388       2.05435314      -0.01467153       0.02353894       0.01339115
C        0.15955325       2.00603627      -1.19177821       0.02195915      -0.00884855      -0.00651977
N        0.12218754       2.60070740      -2.18612811       0.01545980       0.00282833      -0.00188966
