17
Properties=species:S:1:pos:R:3:forces:R:3 Coordinates=T from=T ORCA-job=T run=T Energy:=T 169.1718466=T energy=-85549.90879248423 pbc="F F F"
C        0.28078590      -0.16243685       0.10043949      -0.07347782      -0.07976578       0.01267741
H        1.60122915       1.43732773       0.31429371       0.00851846       0.04399516       0.04091687
Br      -2.31557281      -0.08119629       0.26856818      -0.04260084      -0.04935385      -0.04880296
F        2.92196177       0.18161854      -1.82798873      -0.09894503      -0.00437296      -0.08894117
C        0.51702513       1.33422861       0.16197365       0.00292700      -0.05113467       0.03715335
N        0.69187710      -0.81155558      -0.91751876       0.14818146      -0.02378281      -0.01609647
H        0.63252374      -1.81386240      -0.75121234      -0.04626163       0.03460658       0.05200934
H        2.06279772      -0.21788987      -1.65574599      -0.01821698      -0.00321501       0.13136731
N        0.28752066      -0.91068796       1.42904495       0.09884268      -0.02986247      -0.01854875
O        0.51607947      -0.26318650       2.42543226      -0.03706786       0.04875580      -0.00141661
O        0.20280993      -2.11767797       1.37933753      -0.01921973       0.02677781      -0.03164634
C       -0.13576670       2.07893302       1.23575177      -0.04828993       0.04350596       0.01508096
N       -0.57389962       2.82990087       1.99287312       0.08716827      -0.03061208      -0.00120733
C        0.16574434       1.97378004      -1.18463808       0.04100759       0.03397947       0.01745696
H        0.79721667       1.53942859      -1.95632712      -0.05136982      -0.00901477      -0.06882692
H       -0.89046543       1.80372824      -1.40336993       0.07949144      -0.03723614      -0.02583236
H        0.36126741       3.04522161      -1.14080907      -0.00201159       0.08302305       0.00766448
