17
Properties=species:S:1:pos:R:3:forces:R:3 Coordinates=T from=T ORCA-job=T run=T Energy:=T 91.4668436=T energy=-23975.333201510017 pbc="F F F"
C        0.40214926      -0.15243345       0.07055125      -0.03113549       0.01081229      -0.05818441
H        1.67414065       1.47982216       0.02364313      -0.03367066       0.06477525      -0.06675269
Cl      -2.55370234       0.29474997      -0.01185875      -0.05188326      -0.04949137      -0.10751755
F        3.28408859      -0.07660964      -1.53663556      -0.22415181       0.02437638      -0.03622345
C        0.58011662       1.36297207       0.06980590      -0.02260827      -0.03435845       0.03172579
N        0.89329504      -0.84414324      -0.88725906      -0.02777805       0.06607179       0.12138061
H        0.75347370      -1.84258069      -0.75506295       0.00332104       0.02367498       0.03309994
H        2.34442872      -0.28207885      -1.49258730       0.16173069      -0.00032338      -0.01291472
C       -0.08767475      -0.80516065       1.26698634      -0.00993652      -0.00930838       0.03549222
N       -0.24907755      -1.38069056       2.25621525       0.02004529      -0.00851499      -0.04218875
C        0.06835873       2.02285131       1.34678999       0.01958979       0.02476725       0.07805979
H       -1.01361425       1.90325618       1.42969786      -0.00630990      -0.04081683      -0.02616634
H        0.53575293       1.60284450       2.24202693       0.03399275      -0.02940388       0.06672304
H        0.30221262       3.09163631       1.33335735       0.04215214       0.04266023      -0.07882361
N        0.01683504       1.88912256      -1.16734962       0.02266588      -0.00717945      -0.01439078
H        0.07239153       2.90297264      -1.14953437       0.05451885      -0.05836145       0.06114808
H       -0.97604750       1.64159053      -1.16478554       0.06550567      -0.00791826       0.01557393
