14
Properties=species:S:1:pos:R:3:forces:R:3 Coordinates=T from=T ORCA-job=T run=T Energy:=T 195.0218391=T energy=-13102.339970175959 pbc="F F F"
C       -0.13276672      -0.11893540      -0.11940278       0.10558178      -0.04251831      -0.01850764
H        0.44538692       1.75631727      -0.85361325      -0.01305952       0.01868014       0.09580441
F       -1.26485926      -0.22370729      -1.00061528      -0.03968486       0.04434025       0.05465791
F        3.04741695       0.71669639      -0.24122412      -0.02432029       0.00125726      -0.06335409
C        0.09485551       1.36832142       0.12000534       0.03242047       0.00242361      -0.03581988
H       -0.88174142       1.81003962       0.33852469      -0.02500626       0.06923206       0.03209896
N        0.98606607      -0.71531227      -0.68399182       0.08592788      -0.00562389       0.05972050
H        1.09521673      -1.68883220      -0.45244083      -0.06232101      -0.12131143       0.06079467
H        1.90553604      -0.16512339      -0.54763769      -0.00231740       0.03804689      -0.09501339
C       -0.61555582      -0.77929727       1.12260876       0.04159329       0.07794078      -0.27806062
N       -0.99758105      -1.34298044       2.05127216      -0.08604688      -0.14568861       0.20798070
N        1.02370922       1.54381580       1.22006205      -0.02353697       0.09559838      -0.15101113
H        1.10009886       2.53694016       1.41674774      -0.06738705      -0.02267800       0.01643606
H        1.94792576       1.26301060       0.81930104       0.06375869       0.00064832       0.12119951
