16
Properties=species:S:1:pos:R:3:forces:R:3 Coordinates=T from=T ORCA-job=T run=T Energy:=T 124.4760966=T energy=-15174.052120546314 pbc="F F F"
C       -0.07346486      -0.14874139       0.10054414       0.00643094       0.03399019       0.00221546
H        1.60125135       1.14195266       0.01263705      -0.01782185      -0.01205649       0.01920720
F       -1.49784386      -0.04772129       0.04822685       0.01977063       0.01728249      -0.02937384
F        2.59521844       0.32755155      -1.39348177      -0.03325450      -0.00124775      -0.01162194
C        0.50458067       1.28201689       0.07746558      -0.00472048       0.01732781      -0.01712261
N        0.43817790      -0.86370226      -0.97429508       0.00870140       0.03015701       0.02186179
H        0.44255326      -1.85832478      -0.80293752      -0.00268793      -0.03639069      -0.00827406
H        1.42629284      -0.46088106      -1.25040779       0.00276498      -0.02500482      -0.01468395
C        0.15439045      -0.81267795       1.41068396       0.01465838      -0.04221610       0.08031951
N        0.36143003      -1.39825597       2.38326132       0.00623687       0.02337052      -0.04959100
C        0.12089782       2.05888227       1.24348758       0.02009656      -0.04063793      -0.00541972
N       -0.15769254       2.72164508       2.14595823      -0.02713602       0.02432705       0.03574048
C        0.12609975       2.00068046      -1.22077911       0.00306563       0.02135688      -0.00443112
H        0.68015124       1.50574339      -2.01554259      -0.01128092       0.00700462      -0.02594767
H       -0.95045654       1.97566240      -1.39804268       0.00521426      -0.04367283      -0.02235056
H        0.45381781       3.04205772      -1.17499128       0.00839267       0.01269990       0.02238311
