13
Properties=species:S:1:pos:R:3:forces:R:3 Coordinates=T from=T ORCA-job=T run=T Energy:=T 92.5068918=T energy=-33714.26350468367 pbc="F F F"
C        0.02883208      -0.12137345       0.05726542      -0.04243141       0.02308517       0.00495364
H        1.75087908       1.10204526       0.41298463      -0.02785491       0.01360311      -0.03917588
Cl      -1.84917318       0.22183086      -0.30999835       0.02690233      -0.01690826      -0.01519960
Cl       3.53590360       0.16512230      -1.29996046      -0.02398870       0.02326857      -0.00839601
C        0.67660550       1.25452877       0.22899877      -0.02856820      -0.06368861       0.01407250
H        0.60707765       1.76579218      -0.73603293       0.00301648      -0.01101931       0.07568971
N        0.62067312      -0.79869671      -0.98175218      -0.00254853       0.03504920       0.02567758
H        0.49907688      -1.79834616      -0.97170687       0.05742161      -0.00401067       0.02406969
H        1.58897888      -0.48903389      -1.22673925      -0.03402514      -0.04238259       0.01652996
C       -0.05823957      -0.87081698       1.31864178       0.02791726      -0.08686820       0.03814903
N       -0.05411894      -1.51239669       2.27805427      -0.02697573       0.09065449      -0.12053124
C        0.08581668       2.06857048       1.27511981       0.07704146       0.05289029       0.02849396
N       -0.33429674       2.73841415       2.11347452       0.00001453      -0.01803006      -0.03988179
