15
Properties=species:S:1:pos:R:3:forces:R:3 Coordinates=T from=T ORCA-job=T run=T Energy:=T 115.7522709=T energy=-29470.13085055117 pbc="F F F"
C       -0.09265000      -0.10718522       0.05817471       0.09613867       0.02422394      -0.00316356
H        2.13111832       1.01982780      -0.05088173      -0.00106385      -0.02225575       0.03043653
Cl      -1.99472906      -0.34509751       0.05988165       0.00642291      -0.02119365      -0.04048928
F        2.95754778       0.58061548      -0.25200560      -0.05595094       0.01953263      -0.02743277
C        0.29502279       1.31758304       0.04053621       0.03080270      -0.03962116      -0.02728092
N        0.36962563      -0.74275708      -1.14112924      -0.06388312       0.06593895      -0.03117209
H        0.17986477      -1.73461247      -1.12678697      -0.05100314      -0.03363301       0.08722619
H        1.36755096      -0.58938200      -1.23680209       0.04221572       0.03799534       0.03134717
C        0.30696232      -0.85442224       1.26393147      -0.05216765       0.03387554      -0.08181308
N        0.65866525      -1.61265403       2.05843075       0.06349775      -0.01450478       0.05328714
N        0.07361070       2.10043320       1.20507227      -0.06087031      -0.05830308       0.01391115
O        0.15129483       3.31892700       1.11013465       0.02141279      -0.05503042       0.03440595
O       -0.15618292       1.51098149       2.25685076       0.00021969       0.04408927       0.00025508
C        0.16215461       2.01450656      -1.18398081       0.01855453      -0.02608030       0.04943160
N        0.08784394       2.57148314      -2.19539025       0.02342968       0.04432027      -0.08343839
