13
Properties=species:S:1:pos:R:3:forces:R:3 Coordinates=T from=T ORCA-job=T run=T Energy:=T 51.3929032=T energy=-14105.242665776837 pbc="F F F"
C        1.14315817      -0.04843122      -0.18451328      -0.00661120      -0.01478663      -0.02590817
H        0.89954555       1.89418303       0.76233102       0.00303646       0.00387034      -0.01520916
F       -1.75269337      -0.16319302       0.09218403      -0.02033877       0.01710650      -0.03726521
F        2.46891503       0.08771710      -0.63923016       0.00842055       0.02268975       0.00236577
C        0.47680725       1.32253954      -0.06811453      -0.00587777       0.01322614       0.00031470
H       -0.60316276       1.05349014       0.12232744      -0.01937813      -0.03558336       0.02340335
N        0.38902631      -0.84485372      -1.05744415       0.01507928      -0.02640219      -0.00734278
H       -0.63113749      -0.71567155      -0.72596575      -0.01475850      -0.01702897       0.00261522
H        0.67178755      -1.81511063      -0.99088867      -0.01364293      -0.01053743       0.02343752
C        1.29762761      -0.63544161       1.17982879       0.00241582       0.01737053      -0.02548297
N        1.40027498      -1.14998752       2.20655551       0.02948879      -0.00747510       0.03473332
C        0.59959980       2.08876842      -1.28931577       0.01737049       0.01944312       0.01390074
N        0.67541640       2.74718060      -2.23392016       0.00708014       0.02097879       0.00192495
