18
Properties=species:S:1:pos:R:3:forces:R:3 Coordinates=T from=T ORCA-job=T run=T Energy:=T 184.6042558=T energy=-13734.510282171224 pbc="F F F"
C        1.19182289      -0.02991015       0.04065208      -0.02208735      -0.08979508      -0.07917478
H        1.72422602       2.02504664       0.03256007      -0.09408846      -0.00110266      -0.00350868
F       -1.65985839      -0.25955668       0.04040224       0.04093658      -0.02332077       0.01320013
F        2.60476805      -0.04101942      -0.05542257       0.11064428       0.00847464       0.00229359
C        0.77191548       1.47711836       0.01028623       0.00698930      -0.15209352      -0.04532662
N        0.67567571      -0.68578205      -1.11730782       0.04025727       0.04488286      -0.15332726
H       -0.35317007      -0.69697208      -0.92017160      -0.18194064       0.07896782      -0.01272908
H        1.01604150      -1.64355837      -1.13708130      -0.05859564       0.03445707       0.17716744
C        0.81006531      -0.73233117       1.32624803       0.09432465       0.02286394      -0.04579264
H        1.08297902      -1.78991674       1.21915233       0.08033940       0.09164632       0.14465437
H        1.29352028      -0.30507737       2.21277019      -0.02300927      -0.07163685      -0.00243178
H       -0.28479148      -0.65228966       1.35166111       0.00645850      -0.17485225       0.08265394
C       -0.14254586       1.91934131       1.15973518      -0.04915332      -0.02653690      -0.13899752
H       -1.02726298       1.27008570       1.07369090      -0.01525231       0.09150086       0.12209740
H        0.34996369       1.83802524       2.13745504      -0.04106239      -0.13652583      -0.16702878
H       -0.43020079       2.96284229       1.02567982      -0.04499295       0.12207136      -0.03623104
C        0.12871928       1.83258726      -1.26338315       0.20821975       0.09761256       0.35843853
N       -0.36015595       2.27745104      -2.20627817      -0.04737110       0.09186149      -0.19952408
