18
Properties=species:S:1:pos:R:3:forces:R:3 Coordinates=T from=T ORCA-job=T run=T Energy:=T 174.2648460=T energy=-11035.321232802307 pbc="F F F"
C        1.13763328      -0.11561037      -0.06404926       0.00887245      -0.03284897      -0.01019295
H        1.87510290       1.91872432       0.01817704      -0.00581557       0.00540012      -0.01621091
F       -1.76890698       0.09888776      -0.08345016      -0.00429883       0.01219447      -0.02835114
H        2.21653617      -0.23816180      -0.24840243       0.02743336       0.00750442       0.01324369
C        0.88749341       1.43644388      -0.03028091       0.00936627      -0.03728023       0.01531541
N        0.41849351      -0.70875971      -1.18153006       0.00605151      -0.00948330      -0.03309020
H       -0.59225567      -0.53593426      -0.91736423      -0.01036859      -0.01611545      -0.00843206
H        0.56721668      -1.71329390      -1.13073253       0.01880901      -0.00894562       0.00175755
C        0.77941872      -0.77645671       1.26562520      -0.01813301      -0.00283074       0.01029511
H        1.27626046      -0.32314784       2.13210723       0.00521060       0.00207735       0.01346614
H       -0.30770411      -0.68190397       1.36067077      -0.02812800       0.00262375       0.00887840
H        1.05071982      -1.83992029       1.23456567       0.00565448       0.01200106       0.00146174
C        0.21247448       1.90578388       1.18145397       0.00051068       0.01573594       0.01629952
N       -0.22134449       2.38185370       2.13925509       0.02680690       0.01036359       0.00875525
C        0.12995343       1.96577188      -1.25056002      -0.00135618       0.01017848       0.01364484
H        0.61511031       1.61875938      -2.16345919      -0.01249531       0.00373024      -0.01283845
H       -0.88053580       1.54893724      -1.18590364      -0.00788519      -0.02087044      -0.00832823
H        0.10260997       3.06004188      -1.23634032      -0.01538393       0.04450788      -0.00202533
