17
Properties=species:S:1:pos:R:3:forces:R:3 Coordinates=T from=T ORCA-job=T run=T Energy:=T 220.6469180=T energy=-21277.22753040161 pbc="F F F"
C        1.16084990      -0.07168226      -0.11846664       0.00462892      -0.04899419       0.01364752
H        1.85511119       1.92466078       0.31126224      -0.00712472       0.00916053      -0.00934274
Cl      -2.54007711      -0.28478063       1.10109542      -0.05259986      -0.02500058       0.02792034
H        2.11443770      -0.18392007      -0.65819800       0.00629891      -0.02363500      -0.01030595
C        0.91362499       1.47388075      -0.03935507       0.00037644      -0.05576575       0.01552117
N        0.16172398      -0.85510102      -0.81130475      -0.00766359       0.11200237      -0.09549258
H        0.02214798      -0.49812445      -1.75045461      -0.00888323       0.01383519      -0.00429658
H       -0.73923006      -0.79083737      -0.32686730       0.03886672      -0.04697509       0.04030438
C        1.31262721      -0.64070709       1.28476909       0.02577648      -0.01263559      -0.00908102
H        2.01080714      -0.06032776       1.90136593      -0.02709495       0.00568498      -0.01713443
H        0.33183875      -0.67080988       1.77261817       0.07908676       0.01888646       0.02456550
H        1.68527932      -1.66600093       1.21411458      -0.04243615       0.01410471       0.03174612
N       -0.14886375       1.95461524       0.82152769      -0.01606217      -0.00592957      -0.00030108
H        0.12656391       1.77270170       1.77930244      -0.01961118       0.01673785       0.03152574
H       -1.00093403       1.39555545       0.69639741      -0.00020755       0.02649366      -0.02157403
C        0.72353182       1.98521466      -1.40343444       0.01605666      -0.01091701       0.02451144
N        0.60332945       2.33668467      -2.49518675       0.01318925       0.01660702      -0.04366034
