18
Properties=species:S:1:pos:R:3:forces:R:3 Coordinates=T from=T ORCA-job=T run=T Energy:=T 76.3736698=T energy=-10468.882891388244 pbc="F F F"
C        1.16399852      -0.01985490       0.23890378       0.01059404       0.00422219      -0.01430897
H        1.61987317       1.69887772      -0.89287447       0.00453468      -0.02300432       0.02330029
F       -1.61411198      -0.47563348      -1.15215550      -0.00051225       0.01347620       0.03056560
H        2.19713502      -0.09372939       0.60538172       0.00048582       0.00993214      -0.00101963
C        0.95040343       1.47330127      -0.04716544       0.01315581      -0.01467730       0.01938961
N        1.05767059      -0.75506950      -1.02105363       0.01171292       0.00908939      -0.02930890
H        0.04129573      -0.73797601      -1.26304320      -0.00831540      -0.00549602       0.00755722
H        1.25874230      -1.73114418      -0.81729473       0.00862887      -0.00643009      -0.00010178
C        0.20525277      -0.55579415       1.30782997       0.00585180       0.00908354      -0.00878304
H        0.49171814      -1.58069756       1.58025581      -0.00518101      -0.00043269      -0.01687970
H        0.21298923       0.03833244       2.23091012      -0.03376705       0.02137970      -0.00014310
H       -0.79659893      -0.58311808       0.86814450      -0.00263428      -0.02897083       0.00315709
N        1.46093848       2.26624436       1.09187844       0.00337505       0.00835669       0.01915381
H        0.71115424       2.22390233       1.77978178       0.00346449      -0.00886804       0.03719645
H        1.44085018       3.23899918       0.79416262      -0.00712596       0.00554505      -0.02953375
N       -0.43761002       1.78048312      -0.33990944       0.01864063      -0.01867539      -0.00042729
H       -0.96883513       0.93449843      -0.66726095      -0.01021454       0.01749416      -0.03453974
H       -0.48004910       2.46019426      -1.08971963      -0.02310614       0.01214931      -0.01581911
