18
Properties=species:S:1:pos:R:3:forces:R:3 Coordinates=T from=T ORCA-job=T run=T Energy:=T 104.0450877=T energy=-14523.083573924578 pbc="F F F"
C        0.02262497      -0.06360050       0.03345367       0.01016413       0.06462496       0.01946256
H        1.59536643       1.34258774      -0.14597218      -0.03955000      -0.01788371      -0.00548786
F       -1.37467239      -0.08441968       0.10113308       0.02555478       0.01220076       0.05082884
H        2.92786234      -0.81144399       0.00905208      -0.01563508       0.03041827       0.01831534
C        0.51091729       1.39702941       0.00855352      -0.04055209       0.08799118      -0.05522660
N        0.39481762      -0.69365136      -1.20105215      -0.01414492       0.00220865       0.06499452
H        0.03394355      -1.64354835      -1.16226477       0.01386384      -0.01625173      -0.00953404
H        1.43003015      -0.79121517      -1.11773231      -0.03016787      -0.00215801      -0.01116785
N        0.52558051      -0.63052407       1.25346077       0.01555077      -0.06302816      -0.05670382
H        1.55217915      -0.75752952       1.04489865      -0.01611488      -0.01415186       0.01199158
H        0.14694457      -1.57296263       1.30907395       0.02541842      -0.03595968       0.00913419
C        0.12514777       2.18164141       1.24483049      -0.00498981      -0.00890160       0.00911134
H       -0.93853972       2.06464084       1.45292339      -0.00287382       0.03215304      -0.04443265
H        0.68366263       1.78925253       2.09295524       0.01834504      -0.01461732      -0.00852342
H        0.34562141       3.24681994       1.11889052       0.01894195      -0.04339144       0.01662507
N       -0.04177532       2.09228377      -1.20852043      -0.05109068       0.00288951      -0.04956395
O       -1.16413731       2.55591772      -1.12581976      -0.00808713      -0.02063109       0.01077513
O        0.65991872       2.17535077      -2.19167073       0.08462060       0.01026579       0.03242877
