16
Properties=species:S:1:pos:R:3:forces:R:3 Coordinates=T from=T ORCA-job=T run=T Energy:=T 54.3486882=T energy=-11663.35434762893 pbc="F F F"
C       -0.01758400      -0.04595771      -0.28492523      -0.02754963      -0.00218997      -0.00757409
H        0.13712616       1.92289836      -1.03133423       0.00287918      -0.00355989      -0.01272745
F       -1.05114416      -0.39986794      -1.17595922      -0.05450805      -0.00923736      -0.05518890
F        2.35467912      -0.50320698       1.44520843       0.00769367      -0.00237177      -0.03155886
C       -0.11922362       1.45746677      -0.07468274      -0.03481942       0.00816441      -0.02712571
H       -1.17128405       1.67282590       0.13989215      -0.03453736       0.01242103      -0.03351184
N        1.22058311      -0.38374556      -0.95532931      -0.05785004       0.01954446       0.02815949
H        1.09868598      -1.33878688      -1.28887481       0.06351791       0.00989195       0.09111460
H        1.90646480      -0.44141855      -0.16241084      -0.03695610      -0.05379821      -0.02649332
N       -0.28681707      -0.73405937       0.96093506       0.05807710      -0.01560110      -0.02815782
H        0.65212553      -0.71537803       1.42116799       0.03445303      -0.02053698       0.05543820
H       -0.43439973      -1.71283290       0.72106311       0.03696927       0.01423368      -0.05190056
C        0.77045372       1.98137680       1.04552517      -0.00758373      -0.02916613      -0.02676988
H        0.31004438       1.77971197       2.01892237       0.00256526       0.07556785      -0.05681024
H        1.72490194       1.44503310       1.06526058       0.02972669       0.06408763       0.05053310
H        0.91827411       3.06391559       0.93607631       0.05695424      -0.05979405       0.10653100
