19
Properties=species:S:1:pos:R:3 Energy:=T 1332.9767696=T pbc="F F F"
C        6.73517461      -1.07177326      -1.89545601
O        5.70310216      -1.34654802      -0.95716864
C        4.57492851      -0.55018356      -1.09106835
C        4.58777857       0.93542503      -0.96860469
C        4.02032096       0.07150612       0.16944892
C        2.60063240       0.02989815       0.17237480
C        1.39427157      -0.00475537       0.18441532
C       -0.07004931      -0.03673696       0.14626102
O       -0.70006661       1.21997905       0.36060378
H        6.46363513      -1.40636330      -2.90637253
H        6.98339731       0.00007808      -1.94557562
H        7.61804391      -1.61723617      -1.55655052
H        3.81165470      -0.92730421      -1.76543984
H        5.52708071       1.46234221      -0.85239631
H        3.85683110       1.41590719      -1.59793710
H        4.55657021      -0.05012548       1.10670761
H       -0.40875869      -0.48585541      -0.80532875
H       -0.44317067      -0.68242225       0.94919780
H       -0.20021676       1.90893804      -0.08723012
