19
Properties=species:S:1:pos:R:3 Energy:=T 52.4754761=T pbc="F F F"
C       -3.63036565       2.50615659      -0.64272091
C       -2.11731090       2.50147108      -0.86994213
C       -1.41644285       3.85198801      -0.84349111
O       -1.81606542       2.05370006      -2.21823223
C       -1.47969863       1.65174446       0.27163676
O       -1.54529955       1.96636513       1.43253317
C       -0.74641490       0.40073530      -0.24665817
C       -1.65302281      -0.43407303      -1.02932360
C       -2.51898199      -0.75474642      -1.79415897
H       -3.90568642       3.10901324       0.22005028
H       -4.12571458       2.89154539      -1.53274946
H       -4.00251678       1.48921257      -0.45710474
H       -1.65046395       4.42120289       0.05845746
H       -0.32985559       3.68990132      -0.87318383
H       -1.67905794       4.42277590      -1.73557795
H       -2.24820975       1.22168742      -2.42164472
H        0.07287312       0.76441188      -0.88071894
H       -0.32157072      -0.23750650       0.51861642
H       -3.15929691      -1.38987639      -2.34834607
