19
Properties=species:S:1:pos:R:3 Energy:=T 1696.2161880=T pbc="F F F"
O        0.06264807      -1.41128852       0.47197520
C        0.54187576      -0.27778887       1.15916621
C       -0.03249510       0.97167362       0.50868550
O       -0.68744662       0.87620310      -0.51926319
C        0.13272414       2.25624036       1.15818632
C       -0.58328048       3.47812434       0.61856989
C       -1.01201300       2.97543728       1.96512265
C        0.00194384       3.22826010       3.08657173
C        1.16579900       2.62258007       2.24375432
H       -0.52323549      -1.05272305      -0.22792317
H        0.24945829      -0.33991980       2.21830711
H        1.64223137      -0.24740766       1.16419242
H       -0.04558719       4.42171369       0.57021571
H       -1.26999948       3.27070318      -0.19504780
H       -2.04555189       2.68705252       2.13965821
H        0.11893855       4.28385176       3.36310699
H       -0.22744156       2.63446003       3.97984795
H        1.92222126       3.33314264       1.91159408
H        1.65068059       1.77518434       2.72898982
