19
Properties=species:S:1:pos:R:3 Energy:=T 1529.5082516=T pbc="F F F"
O        0.05906487      -0.01528844       0.89819976
C       -0.64580648       1.07473064       1.39821377
C       -1.43476082       1.88076126       0.37866451
C       -2.19989607       3.06533892       1.03986096
C       -1.96799872       3.00698752       2.55333306
C       -2.42871515       1.63310103       3.11109659
C       -1.22145395       0.78478672       2.75589645
C       -0.07327296       1.76570727       2.59195592
O       -0.54480244       3.07174188       2.79127882
H        0.57336918       0.25732278       0.12644062
H       -0.76768483       2.25786453      -0.40861023
H       -2.12967962       1.18208661      -0.10688278
H       -1.83297620       4.01773055       0.65187047
H       -3.26619353       3.01524802       0.81206501
H       -2.41043666       3.86397782       3.06695822
H       -2.60027452       1.67085206       4.19369900
H       -3.34678393       1.26978635       2.63512274
H       -1.06048262      -0.21467198       3.14052393
H        0.95295291       1.57895887       2.89892038
