19
Properties=species:S:1:pos:R:3 Energy:=T 160.6939275=T pbc="F F F"
C        1.43733014      -0.20551332      -0.01775074
O        0.38377377      -0.34377781       0.94670401
C       -0.24240019       0.78527995       1.36705193
O        0.35002550       1.78323055       1.66986937
C       -1.69913275       0.43174145       1.64483787
C       -2.67155077       1.64102603       1.68804330
C       -3.32537561       1.49228547       3.04554783
C       -2.94104104       0.39728019       3.69756879
C       -1.85621764      -0.37031816       2.98219442
H        2.18503237       0.51306393       0.31434021
H        1.87184252      -1.19569959      -0.08438233
H        1.04579391       0.10302311      -0.98706669
H       -1.94664548      -0.24438085       0.82389701
H       -2.14038312       2.59663849       1.55915843
H       -3.40535967       1.62552458       0.86587960
H       -4.04643619       2.20833544       3.41852083
H       -3.30435647       0.09954878       4.67225738
H       -0.91373076      -0.40516100       3.55941899
H       -2.09764824      -1.42549913       2.79066791
