19
Properties=species:S:1:pos:R:3 Energy:=T 3134.1488898=T pbc="F F F"
O        1.61735784       0.30031030      -0.03357852
C        0.50330510      -0.29163710       0.61375546
C       -0.24732006       0.71761887       1.45992998
O       -1.09852290       0.18194009       2.49242513
C        0.10067428       0.86302158       2.85521236
C        1.24323605       0.16647177       3.62150790
C        1.21208584       1.33578501       4.61874672
C       -0.19414371       1.46931718       5.11219998
C        0.13028810       2.06561444       3.78087036
H        2.00924178       0.91813956       0.59843077
H       -0.12220017      -0.72403414      -0.16989160
H        0.79813135      -1.09823219       1.29536980
H       -0.64277611       1.58692471       0.93202264
H        0.97749703      -0.80551175       4.06685346
H        2.17022188       0.08151764       3.04305825
H        2.08110906       1.73804217       5.12557730
H       -0.81782462       0.59134585       4.96810935
H       -0.40518143       2.06261039       5.99644022
H       -0.01888991       3.10291521       3.50713080
