19
Properties=species:S:1:pos:R:3 Energy:=T 1379.7349171=T pbc="F F F"
C        1.24520091       0.64231167      -0.16070318
C       -0.15051450       0.19263240      -0.00908217
C       -1.29744955       0.91224444      -0.10569128
C       -2.48978964       0.17065165       0.46309434
C       -1.88465888      -1.19373117       0.82177141
O       -2.67834887      -2.31656135       0.68259009
C       -0.88550444      -1.18683192       1.95871010
O       -0.84998760      -2.33813129       2.74788293
C       -0.40673632      -1.16220861       0.50299872
H        1.85789021       0.17499425       0.61937326
H        1.66760630       0.38365062      -1.13391134
H        1.33029917       1.73161271      -0.05223033
H       -1.33942306       1.94656054      -0.40283953
H       -2.89347234       0.65403982       1.36271599
H       -3.33581052       0.05984503      -0.21946319
H       -2.17712404      -3.00898638       1.16115381
H       -0.72513803      -0.29483888       2.57101171
H       -0.69620403      -3.10202583       2.12884619
H        0.15270752      -2.01999677       0.11846343
