19
Properties=species:S:1:pos:R:3 Energy:=T 1847.3991547=T pbc="F F F"
O        0.52776673       0.91797809       0.41894103
C       -0.88193269       1.09349101       0.38312676
C       -1.65560448      -0.22449626       0.14231917
C       -2.15416537      -0.61950310       1.52097203
O       -2.24046511      -1.96622560       1.86022325
C       -3.10285396       0.37129012       2.16254247
C       -2.93480704       1.81242375       1.67432788
C       -1.38617823       1.60584377       1.73877854
C       -1.62355516       0.32305942       2.55529413
H        0.74724170       0.39017804       1.19829095
H       -1.05681879       1.81307868      -0.41728404
H       -2.51751862      -0.08285201      -0.52932711
H       -0.99266587      -0.98043348      -0.29411343
H       -3.04628119      -2.33253914       1.46914512
H       -3.98183111      -0.05322023       2.63587966
H       -3.40459191       2.12132960       0.73479965
H       -3.24387279       2.50803462       2.45974276
H       -0.77450574       2.41729357       2.13961537
H       -1.13391991      -0.04153013       3.44953616
