19
Properties=species:S:1:pos:R:3 Energy:=T 170.3552817=T pbc="F F F"
C        4.32108156      -0.14112301      -2.13120009
C        3.42345942       0.00255495      -0.96781185
C        3.64112866      -0.00123008       0.36148443
C        2.36815356       0.12543755       1.01350901
C        2.17204829       0.19161350       2.48199795
C        1.42420258       0.15310755       0.01707339
C       -0.04578309      -0.03989953       0.00604871
O       -0.44571004      -1.23444897      -0.65095689
O        2.07717546       0.20721508      -1.19641452
H        5.36114293      -0.14526041      -1.80122086
H        4.15812471      -1.07804424      -2.66971072
H        4.20948156       0.67338379      -2.85298442
H        4.58181859      -0.05725252       0.90085012
H        2.46963765      -0.73313266       2.98464458
H        2.75343006       1.00040869       2.93181430
H        1.13208877       0.36937767       2.74847845
H       -0.41504024      -0.01824946       1.03936366
H       -0.55879152       0.75705841      -0.53667983
H        0.16875045      -1.95058553      -0.45267496
