19
Properties=species:S:1:pos:R:3 Energy:=T 274.5385490=T pbc="F F F"
O       -0.01765019       1.36879767       0.23631031
C        0.02235720      -0.02721404       0.01077887
C        0.61876056      -0.42428928      -1.38821675
C       -0.53361753      -1.03239998      -2.23765091
C       -1.44194971      -1.60616267      -1.13551370
O       -2.83672102      -1.71168153      -1.39273658
C       -3.55993335      -1.12892792      -0.29230395
C       -2.51951508      -0.47126079       0.59232029
C       -1.34758520      -0.64655781      -0.00146614
H       -0.63123580       1.75497134      -0.39792525
H        0.63837925      -0.42397426       0.82765811
H        1.07104564       0.44288054      -1.87549078
H        1.39345509      -1.18737758      -1.24954255
H       -1.07082721      -0.27752867      -2.82092516
H       -0.18631571      -1.81048581      -2.92690368
H       -1.01606205      -2.59637347      -0.89300399
H       -4.28664759      -0.40394260      -0.68990356
H       -4.13744308      -1.91261083       0.22663510
H       -2.75620487       0.03914753       1.51675056
