19
Properties=species:S:1:pos:R:3 Energy:=T 1903.0442566=T pbc="F F F"
C        1.11931523       1.41467549       0.24793241
C        0.80548901      -0.06913559       0.02776068
C        1.61090328      -0.69539442      -1.11491345
C        1.29578621      -0.28724969      -2.58926117
C        0.97611030      -1.74652879      -2.90849578
O        2.11758831      -2.56106501      -2.62228386
C        1.32125393      -2.17832430      -1.50610110
C        0.91510893      -3.34809094      -0.68986363
O        0.64859450      -3.29407609       0.48709823
H        0.52360785       1.85941697       1.05808866
H        2.18195030       1.54240824       0.49756148
H        0.90964254       1.96173761      -0.67789588
H        1.03444244      -0.64722731       0.93399764
H       -0.26768968      -0.19679840      -0.15745352
H        2.67646656      -0.58191663      -0.89662032
H        0.46914882       0.40671022      -2.76412504
H        2.18109039       0.07282276      -3.12019483
H        0.27086246      -2.15652245      -3.62325591
H        0.84993795      -4.27461194      -1.29828473
