19
Properties=species:S:1:pos:R:3 Energy:=T 98.3411462=T pbc="F F F"
C       -1.75878604       3.45985325      -1.01827732
C       -1.14359142       2.15580157      -0.52343621
C       -0.59700375       1.24045027      -1.61499013
O       -1.56312100       1.13397040      -2.66186541
C       -1.55218300      -0.06512075      -3.45488134
C       -2.93681193      -0.52006834      -3.55972530
C       -4.04937233      -0.95132467      -3.42372261
C       -0.25038216      -0.10664458      -1.00317773
O        0.86648549      -0.57100601      -0.97970026
H       -1.55944659       4.24317522      -0.28163374
H       -1.36554678       3.80073843      -1.97738900
H       -2.84170098       3.36240138      -1.09614991
H       -0.33595008       2.38580259       0.18798836
H       -1.90674331       1.62473642       0.05859597
H        0.34271183       1.64196219      -2.01662329
H       -1.18942690       0.14762451      -4.46631369
H       -0.93998833      -0.88334917      -3.06100913
H       -5.04498009      -1.30863307      -3.32042370
H       -1.08929093      -0.56194966      -0.41298535
