19
Properties=species:S:1:pos:R:3 Energy:=T 3082.8040833=T pbc="F F F"
C        1.46001153       0.16611498      -0.08926591
O        0.07600674       0.17957793       0.11604885
C       -0.32303154       0.76590637       1.30211171
C       -0.88971554       2.14903808       1.34409574
C       -1.87558153       1.00566605       1.32700580
C       -1.95322592       0.06715195       2.51666425
C       -3.14361977      -0.74647228       2.89401772
O       -1.15702815       0.62125803       3.58032729
C       -0.47984824      -0.10562753       2.53936750
H        1.99170023      -0.14971870       0.81405826
H        1.62461873      -0.54745731      -0.89408370
H        1.79904468       1.16003338      -0.39082689
H       -0.75260907       2.82159378       2.17951751
H       -0.83932024       2.61199709       0.36862419
H       -2.10949552       0.66128626       0.33455826
H       -3.06839392      -1.10477496       3.92637136
H       -4.03124070      -0.11056747       2.80213742
H       -3.26119221      -1.60541242       2.22296691
H        0.18315998      -0.88971319       2.88930402
