19
Properties=species:S:1:pos:R:3 Energy:=T 1382.2771312=T pbc="F F F"
C        0.45053774       3.01769685       1.25434058
C       -1.06003925       2.80598371       1.06517824
O       -1.80418717       3.32459464       2.16785664
C       -1.49356097       1.38486651       0.82228505
C       -0.87855514       0.36086895      -0.08450987
O        0.26424940       0.64684827      -0.83126257
C       -0.76811093       0.18318006       1.42456289
C       -1.54269479      -0.90692496       1.93880335
C       -2.19304242      -1.82225177       2.37055272
H        1.05781669       2.42911393       0.56196361
H        0.69980485       4.06779921       1.12034917
H        0.75945383       2.73463268       2.26158763
H       -1.40061819       3.39834977       0.21428949
H       -1.71259646       2.74033503       2.92999454
H       -2.57495754       1.27653274       0.76724618
H       -1.60430890      -0.30009632      -0.56185636
H        0.44230012      -0.11765167      -1.39489692
H        0.21703836       0.31087823       1.87117634
H       -2.74715843      -2.66802427       2.69732023
