19
Properties=species:S:1:pos:R:3 Energy:=T 40.8729512=T pbc="F F F"
C       -0.61621910      -1.56653538      -2.53327068
C       -0.01325053      -0.25500108      -2.00665560
C       -0.50562360       0.90012543      -2.89040743
C       -0.47753886      -0.04681015      -0.57169887
O       -1.14425159      -0.83971351       0.05067384
O       -0.12004868       1.17516255      -0.05392632
C       -0.26018976       1.28427321       1.38158251
C        0.52022603       2.39293058       1.90334502
C        1.18590475       3.28467335       2.35357120
H       -0.24038383      -2.42588313      -1.97232949
H       -1.70647733      -1.51669363      -2.42936792
H       -0.36157017      -1.63114284      -3.59830317
H        1.08643719      -0.29961126      -2.05475143
H        0.16834915       1.75925295      -2.88103129
H       -0.60520703       0.52184372      -3.91940504
H       -1.49741433       1.23036358      -2.56182667
H       -1.32195390       1.41328085       1.59954991
H        0.10445989       0.35641144       1.81710980
H        1.80493006       4.03790274       2.76694082
