19
Properties=species:S:1:pos:R:3 Energy:=T 2156.6276960=T pbc="F F F"
O        1.51356687       0.59484306      -0.15354100
C        0.12793122       0.25353515      -0.05165877
C       -0.72987085       0.44532632      -1.28172785
C       -1.49529153       1.66552068      -1.86154180
C       -2.15424099       1.27670147      -3.19646964
C       -2.28110796      -0.14871572      -2.61282354
C       -2.26250388       0.54503445      -1.22399145
C       -0.83870377      -0.62216884      -2.40339984
O       -0.05172283      -0.55259776      -3.58371059
H        1.73192642       0.64424042      -1.08702073
H        0.04018051      -0.80702994       0.24366429
H       -0.28413857       0.83231526       0.79126432
H       -1.31115740       2.67811408      -1.52164170
H       -3.16584254       1.69998208      -3.22330781
H       -1.62663010       1.43761117      -4.13670074
H       -3.03629029      -0.84714121      -2.96789305
H       -2.96499204       0.58106599      -0.40326897
H       -0.79527405      -1.61887769      -1.93124263
H        0.86757146      -0.63706972      -3.30792002
