19
Properties=species:S:1:pos:R:3 Energy:=T 1298.9421924=T pbc="F F F"
O        0.42226245       0.31779140       1.08417574
C       -0.85027701       0.62997116       0.58303328
C       -1.18024171       2.14958886       0.43616028
C       -2.33531424       2.06886927       1.49790791
C       -2.27445880       0.56923728       1.30221393
C       -2.34403147      -0.66608524       2.18374727
C       -1.77206510      -1.60092932       1.07052274
C       -1.64095667      -0.53093894      -0.07390714
O       -2.90519180       0.18787241       0.01450088
H        1.05748855       0.37844597       0.35616547
H       -0.32416805       2.75040331       0.73729841
H       -1.53285654       2.43781631      -0.55519311
H       -2.00237481       2.33048227       2.50471287
H       -3.26727613       2.55834519       1.23034464
H       -1.69158882      -0.56759190       3.05631848
H       -3.35855449      -0.91210318       2.49833350
H       -0.80252454      -2.03450486       1.33268273
H       -2.45347505      -2.40314932       0.78850819
H       -1.39969521      -0.87598050      -1.09142700
