19
Properties=species:S:1:pos:R:3 Energy:=T 1377.1816455=T pbc="F F F"
C       -1.68107446      -1.30623629      -0.21023595
C       -2.10880856      -0.25865991       0.78448550
O       -3.46657701      -0.43205624       1.14829290
C       -3.69245075       0.58194338       2.11454010
C       -2.32746269       1.24990140       2.16676129
C       -1.81207731       1.28188454       0.68833036
C       -0.38120888       1.06874528       1.23636372
O        0.64524393       0.52759420       0.42698625
C       -1.26701931       0.09790029       2.04750936
H       -0.61520566      -1.22427036      -0.41779674
H       -1.88791203      -2.29825701       0.20217799
H       -2.24252915      -1.21017948      -1.14339179
H       -4.50385315       1.24814131       1.78886976
H       -3.99219957       0.13074656       3.07083916
H       -2.19434391       2.09329344       2.85366820
H       -2.11230212       1.97878620      -0.10295165
H       -0.00026007       1.90963432       1.83706520
H        0.94725209       1.20463245      -0.19601317
H       -0.93322103      -0.58605462       2.83653952
