19
Properties=species:S:1:pos:R:3 Energy:=T 533.5600467=T pbc="F F F"
C        2.10265990      -0.79082287       1.33433040
C        1.37301102      -0.23231491       0.12490575
C        2.05423995      -0.69110283      -1.17401810
C        1.49732859      -0.04407606      -2.48269495
C        0.82772796      -1.39057993      -2.79999310
O       -0.11634488      -1.70252668      -3.46512154
C        1.59647016      -2.10404682      -1.67723751
C        3.52304935      -0.59391397      -0.91519773
O        4.36612364      -0.58408511      -1.77384321
H        2.56051292      -1.72186582       1.04315583
H        2.99148124      -0.18904029       1.38286098
H        1.55148632      -0.78784795       2.25384997
H        0.30836441      -0.45106577       0.08247740
H        1.48510898       0.84508784       0.23188463
H        0.81075640       0.79279022      -2.30812711
H        2.26058651       0.25443426      -3.20651410
H        0.98354643      -2.68375671      -0.97957883
H        2.41785473      -2.74604111      -2.01747605
H        3.78771442      -0.99742546       0.04698652
