19
Properties=species:S:1:pos:R:3 Energy:=T 1856.7985256=T pbc="F F F"
C        0.69815739       1.33363703      -0.22553865
C        1.46427692       0.04925576       0.04759679
C       -0.02335272       0.05038574       0.02303213
O       -0.69078448      -0.35954963       1.21819445
C       -1.76426049      -0.98560709       0.45039986
C       -3.05209168      -0.17464227       0.46471591
C       -3.07274865       0.59115462      -0.88057294
O       -1.87443345       0.27208118      -1.61605160
C       -1.04843808      -0.59524514      -0.86538381
H        0.67868144       2.08921168       0.55004493
H        0.68316445       1.73318391      -1.23571907
H        2.00383775      -0.45888691      -0.74364811
H        1.91566009      -0.03520667       1.03510504
H       -1.86261351      -2.03699048       0.72733179
H       -3.92875445      -0.82702586       0.55110690
H       -3.08538461       0.47402844       1.34930500
H       -3.92333687       0.28923339      -1.49751728
H       -3.14455085       1.67951166      -0.76378879
H       -0.65812794      -1.37159959      -1.52749233
