19
Properties=species:S:1:pos:R:3 Energy:=T 395.8473524=T pbc="F F F"
C       -1.12637178       1.17995631      -2.74750722
O       -1.56851768       1.32257312      -1.38612847
C       -0.39091575       1.23573461      -0.60350708
C        0.15956771      -0.20016029      -0.44667100
C        1.58498294       0.16873710       0.00956955
O        1.97267482       1.25776418      -0.84652602
C        0.78130774       1.65593223      -1.50142276
C        0.33629723       0.70622017      -2.63695691
C        0.28883337      -0.67206907      -1.92133660
H       -1.77713521       0.46814181      -3.25948607
H       -1.19132475       2.14540931      -3.26951303
H       -0.53671560       1.75695370       0.34472046
H       -0.37050402      -0.87352748       0.22704878
H        1.59295133       0.49217785       1.06034599
H        2.30322807      -0.64574479      -0.10461751
H        0.85784400       2.70133206      -1.80694530
H        0.89459286       0.74120356      -3.57257431
H       -0.57068374      -1.27204713      -2.24188230
H        1.20074834      -1.25726721      -2.08701006
