19
Properties=species:S:1:pos:R:3 Energy:=T 690.4528975=T pbc="F F F"
O       -2.02144118       5.04578258       1.44770063
C       -1.01848218       4.19921209       0.92889289
C       -1.22577306       3.88923810      -0.53493627
C       -1.36704626       4.95133319      -1.65858104
C       -1.87742569       3.72741120      -2.50410910
C       -2.51575524       3.27295366      -1.14051270
C       -0.63301592       2.85644735      -2.56652556
O       -0.16542182       2.25032072      -3.49336198
C       -0.12988694       2.96074157      -1.11307926
H       -1.82359695       5.19785874       2.37927342
H       -0.03013046       4.66451082       1.05442223
H       -0.99565191       3.25377005       1.48988741
H       -2.17576617       5.65666922      -1.46565543
H       -0.46624547       5.48015945      -1.98746300
H       -2.43589713       3.82119353      -3.43858510
H       -3.40525820       3.86025709      -0.91115164
H       -2.70643435       2.20702029      -0.97713867
H       -0.09665167       1.98235780      -0.62177915
H        0.87264040       3.39860327      -1.05893789
