19
Properties=species:S:1:pos:R:3 Energy:=T 1995.8888535=T pbc="F F F"
C       -4.50700403       3.21743263      -5.60025955
C       -3.32013693       3.99785044      -5.04912652
O       -2.94665346       5.05349102      -5.50699103
C       -2.69043741       3.36461276      -3.82748255
C       -1.51275671       4.18328618      -3.20308843
C       -2.34589915       4.29319024      -1.91341437
C       -1.96087813       4.60125900      -0.55858094
O       -2.60004602       5.59093559      -1.37632616
C       -3.55357074       3.57524828      -2.53448353
H       -5.41065145       3.51792905      -5.06038082
H       -4.65886163       3.37044303      -6.66553993
H       -4.37464112       2.14980505      -5.39496864
H       -2.44415626       2.31747551      -4.03389370
H       -0.53557330       3.69334556      -3.11519638
H       -1.38865924       5.16031314      -3.69023570
H       -2.54912377       4.18993390       0.25965250
H       -0.90641780       4.76859513      -0.36285860
H       -3.97035426       2.69314624      -2.04370756
H       -4.32524012       4.34079814      -2.66472788
