19
Properties=species:S:1:pos:R:3 Energy:=T 1542.5083736=T pbc="F F F"
O        0.46077076      -0.02932742       0.22750496
C       -0.83223012       0.28192920       0.76066724
C       -2.08660402       0.14245244      -0.12370318
C       -2.13854598      -1.37653091      -0.42065697
C       -2.03082200      -1.83478902       1.03105314
C       -2.68462559      -0.77405648       1.91446063
C       -3.18893977       0.31195617       0.96001938
C       -1.19368059      -0.80516029       1.75200481
O       -0.17856234      -1.16268291       2.63501518
H        1.04074667      -0.16884724       1.03219556
H       -0.81274644       1.27244049       1.24329214
H       -2.14023880       0.81231128      -0.97808866
H       -3.06771276      -1.69157268      -0.90861250
H       -1.28937939      -1.71315117      -1.02079343
H       -1.99511613      -2.87471260       1.31937911
H       -3.13035508      -0.99085767       2.87121075
H       -4.19457475       0.11911689       0.57877236
H       -3.15978851       1.29534926       1.43975065
H        0.66022605      -0.80466689       2.22025789
