19
Properties=species:S:1:pos:R:3 Energy:=T 1616.3033345=T pbc="F F F"
O        1.24415420       0.15835818      -0.27418297
C        0.03690186       0.75146792       0.21157870
C       -1.12910370       0.19140429      -0.54414987
C       -1.67979548       0.81430680      -1.59805955
C       -3.02261801       0.25696711      -1.97869523
C       -3.09290624      -1.09183969      -1.20710178
C       -1.86113924      -1.06673023      -0.30400051
C       -1.12808564      -2.24653581       0.19161006
O       -2.06515645      -1.58888848       1.03422997
H        1.83545909       0.90173675      -0.45013217
H       -0.06008809       0.55212218       1.29302562
H        0.06129319       1.85186370       0.08542030
H       -1.31694169       1.75560486      -2.00909741
H       -3.80767317       0.95151458      -1.64137051
H       -3.15732345       0.16377083      -3.06347552
H       -3.98614485      -1.15362713      -0.57198019
H       -3.09761925      -1.96825924      -1.86831801
H       -1.40177957      -3.24512435      -0.15232367
H       -0.09162151      -2.11455201       0.49280392
