19
Properties=species:S:1:pos:R:3 Energy:=T 578.0857045=T pbc="F F F"
C        0.00239756       2.54036061       0.01298469
C       -0.85696701       1.29329143       0.00760673
C       -2.01810773       1.15129861       1.05277629
C       -2.77261685       0.33006952      -0.02805503
C       -1.96416161       1.12336559      -1.09058830
C       -2.21686589      -1.10228441       0.00459902
O       -0.77245907      -1.15065204       0.04158268
C       -0.05190269       0.00758688       0.04462363
O        1.14626210      -0.05936057       0.07565420
H        0.62568634       2.58202718       0.91283438
H        0.67018972       2.55898542      -0.85515195
H       -0.64219678       3.42558438      -0.01477735
H       -1.78598643       0.67242301       2.00503942
H       -2.50295762       2.11916938       1.22077847
H       -3.86894624       0.35150000      -0.05592791
H       -1.68475253       0.62000735      -2.01717726
H       -2.43931343       2.08621370      -1.30791486
H       -2.55969978      -1.64458226       0.89154815
H       -2.51501208      -1.66772373      -0.88404508
