19
Properties=species:S:1:pos:R:3 Energy:=T 1421.5633080=T pbc="F F F"
C        0.25660071       0.52923570       0.24658570
C        0.69436033      -0.74297936      -0.45012386
O        1.98533420      -0.54598555      -1.04518511
C        2.80483371      -1.51589991      -0.45990978
C        2.01053652      -2.84176053      -0.22548482
O        2.70085022      -3.21317025       1.01004099
C        2.42031241      -1.76527048       1.01854584
C        3.03315820      -1.08716565       2.21345387
C        0.95820207      -1.92621621       0.47738866
H        0.98829272       0.81167014       0.99982344
H        0.19649720       1.33975978      -0.48570404
H       -0.73087580       0.40783804       0.71085930
H       -0.02607547      -0.98345703      -1.24693231
H        3.84131864      -1.47397278      -0.77577096
H        1.83099450      -3.68126829      -0.90722597
H        2.49051666      -1.37782816       3.11738944
H        4.06131554      -1.46088840       2.26031697
H        3.05761341       0.00533737       2.14354708
H        0.14290395      -2.34943846       1.06004544
