19
Properties=species:S:1:pos:R:3 Energy:=T 2359.6770525=T pbc="F F F"
C        0.36195579       0.30821366      -0.31999517
C        1.19831815      -0.47208060       0.66799827
O        2.51453517      -0.75495523       0.11850309
C        2.32867644      -2.17814446       0.23452044
C        0.88058210      -1.97877887       0.79362868
C        1.27000151      -2.65681176       2.13220544
C        2.73320771      -2.67121891       1.63880184
C        3.94427219      -3.33758135       2.07859565
O        3.75614895      -1.95578524       2.34036314
H       -0.67049003       0.40717820       0.03067834
H        0.79847507       1.29947854      -0.46870351
H        0.35794344      -0.21629743      -1.27845634
H        1.30325468       0.02569259       1.63362289
H        2.60440205      -2.72953974      -0.66596190
H       -0.01034163      -2.33710529       0.27950036
H        1.05575234      -2.10211410       3.05214071
H        0.86109428      -3.66411398       2.24331277
H        3.88113447      -3.99254907       2.94261659
H        4.72514728      -3.56709699       1.35896905
