19
Properties=species:S:1:pos:R:3 Energy:=T 1761.4805917=T pbc="F F F"
C        0.54892874      -2.65372132      -2.27943965
C        0.87418151      -1.45008576      -1.44467739
C        2.22014205      -0.91788074      -0.91978858
C        1.84083442       0.52724094      -1.39055518
C        0.47450806       0.02083942      -1.87728794
C       -0.30259029       0.51713364      -2.99850864
O       -0.09967915       1.60210561      -3.49524714
C       -0.21056907      -0.72179125      -0.76866412
O       -1.47263506      -1.26222754      -0.99730640
H        0.97036351      -3.59009844      -1.89857173
H       -0.53744576      -2.72807187      -2.35352055
H        0.92464713      -2.52562959      -3.30261835
H        2.32882316      -1.00026077       0.16860227
H        3.11021279      -1.34057097      -1.39546569
H        1.78008594       1.29590564      -0.61017681
H        2.46645159       0.91881419      -2.19512547
H       -1.08582769      -0.16424529      -3.38104857
H       -0.01509684      -0.31008666       0.22726396
H       -2.13528877      -0.60827803      -0.73835334
