19
Properties=species:S:1:pos:R:3 Energy:=T 2562.5691205=T pbc="F F F"
O        1.54695576       1.54183309      -1.84510793
C        2.14022488       0.35307274      -1.46508409
C        2.07416943      -0.74096240      -2.50342261
C        3.38696150      -0.04767135      -2.25626535
C        4.04824704       0.89278631      -3.21940294
C        5.44681381       0.56946343      -3.68854884
C        5.24756242       1.62263668      -2.64191493
C        1.96609840       0.13299434      -0.01531806
O        1.35099822       0.94363428       0.65554982
H        1.28810069       1.97832049      -1.00505715
H        2.00598957      -1.78532186      -2.22405133
H        1.43155963      -0.44014919      -3.32442016
H        4.08653665      -0.60294266      -1.63701003
H        3.42128623       1.48664441      -3.87374288
H        5.90828258      -0.35255187      -3.34044494
H        5.73805188       0.88623347      -4.68616883
H        5.49150821       1.30423767      -1.63209740
H        5.43453033       2.66392196      -2.86701461
H        2.45185322      -0.71651948       0.48948179
