19
Properties=species:S:1:pos:R:3 Energy:=T 1682.6693211=T pbc="F F F"
C       -2.96371976       2.00229383       1.44001157
C       -1.97858698       0.85167349       1.36856411
C       -0.75250959       1.04387253       0.46718051
C        0.10754900      -0.17556199       0.35302983
O        1.28327958      -0.39293405       0.45104698
C       -1.11025921      -1.06742958      -0.04756458
C       -0.98757199      -1.69226841      -1.43291410
C       -1.98066567       0.19068362       0.03871301
O       -2.88577351       0.53003359      -0.98784554
H       -2.50347848       2.92206005       1.81839691
H       -3.28837490       2.14979347       0.40453478
H       -3.82736674       1.76923187       2.07321765
H       -1.84319452       0.22692755       2.24558363
H       -0.39745652       2.05001645       0.27820466
H       -1.35515816      -1.81055251       0.71652765
H        0.03946465      -2.03720847      -1.60366232
H       -1.66658559      -2.54558651      -1.54016360
H       -1.23613524      -0.94087523      -2.19161890
H       -3.75597707       0.13658053      -0.82014252
