19
Properties=species:S:1:pos:R:3 Energy:=T 1391.5757826=T pbc="F F F"
C        0.06453192       0.21539956      -0.95399418
C        1.53073740       0.23923887      -0.61890763
C        2.12864285      -0.65399528       0.46190866
O        2.01199596      -2.05163015       0.33626686
C        3.50362665       0.06076264       0.49423449
C        2.23071781       0.92952000       0.59539745
C        1.54703392       0.06810939       1.68138934
C        2.35856268       2.41314005       0.59368313
O        1.92157563       3.14176012       1.43797068
H       -0.55712643       0.14969168      -0.05581847
H       -0.20366925       1.12757776      -1.48965568
H       -0.19064770      -0.62846453      -1.59908026
H        2.16680233       0.37827248      -1.49813990
H        2.58630769      -2.40400282       1.02366662
H        4.10681416      -0.09404014       1.38568498
H        4.04491801       0.17063582      -0.44605846
H        2.08661890      -0.08088271       2.61601797
H        0.46215483       0.06390271       1.79776962
H        2.81644228       2.79021458      -0.34009464
