19
Properties=species:S:1:pos:R:3 Energy:=T 305.1827440=T pbc="F F F"
C        1.32438558       0.08337834      -0.10537799
O       -0.07223622      -0.04860971       0.05697581
C       -0.53500149       0.58651197       1.23033204
C       -0.04618121       2.03818732       1.39723646
C       -1.28933876       2.83989148       1.76934899
O       -2.35556214       1.92033286       1.95961238
C       -2.06537440       0.76322294       1.20098312
C       -0.17935764      -0.22333013       2.42648525
C        0.43832057      -0.91164512       3.19229655
H        1.87564389      -0.28784981       0.76567026
H        1.61402922      -0.49558511      -0.98915760
H        1.61491088       1.13274268      -0.24555846
H        0.80155551       2.08503675       2.07967490
H        0.36646546       2.36378628       0.44035332
H       -1.19698790       3.46343079       2.66087290
H       -1.53911259       3.50476201       0.93780181
H       -2.64449933      -0.07092610       1.61649236
H       -2.33248980       0.90963843       0.14146362
H        0.89145132      -1.63540578       3.82879445
