19
Properties=species:S:1:pos:R:3 Energy:=T 1588.0697292=T pbc="F F F"
C        1.15964293      -0.34811598       1.13199220
C        1.32283411       0.32084181      -0.23451028
C        1.70168359      -0.70644042      -1.28737253
C        1.21620593      -0.51409450      -2.69262133
O        1.91559548      -1.31253475      -3.65838668
C        1.54039070      -2.52985312      -2.94599033
C        0.69335414      -3.42153875      -3.81682046
O       -0.47481342      -3.63726360      -3.61013637
C        0.75703856      -1.69745429      -1.90234541
H        0.34924077      -1.07737591       1.10736211
H        2.07669743      -0.88272046       1.39489562
H        0.93589393       0.36353746       1.92950700
H        0.41091761       0.85561837      -0.52202651
H        2.12289545       1.06946702      -0.20888530
H        2.69655166      -1.12630048      -1.12864976
H        0.76463060       0.39312323      -3.08202096
H        2.44384866      -3.05458920      -2.62603160
H        1.20650701      -3.84040793      -4.71915166
H       -0.17632483      -2.05195933      -1.49713805
