19
Properties=species:S:1:pos:R:3 Energy:=T 189.2757210=T pbc="F F F"
C       -2.12219133       3.66007981      -0.66206014
C       -1.41943374       2.50540504       0.02877084
O       -1.45889819       2.82588988       1.42269620
C       -2.09343112       1.11743377      -0.16162892
C       -0.96188984       0.17183129       0.15768230
C        0.22351644       0.81704815       0.10624502
C        0.05627190       2.26285647      -0.32415184
C        1.46017425       0.11189979       0.34490019
O        2.53490888       0.63934047       0.52976790
H       -3.10011120       3.79883375      -0.19539574
H       -1.54209308       4.57531392      -0.50638149
H       -2.23641248       3.49203147      -1.73609506
H       -0.81760455       2.25614082       1.86381583
H       -2.96338162       1.00239268       0.49323353
H       -2.44906229       0.98982353      -1.19584678
H       -1.06632871      -0.88973743       0.35149117
H        0.75720343       2.92820844       0.18487966
H        0.22307453       2.38492764      -1.40216418
H        1.34692944      -0.99287979       0.37948099
