19
Properties=species:S:1:pos:R:3 Energy:=T 1242.5832950=T pbc="F F F"
C        0.35753291      -0.85813168       0.71578888
C        1.52088179      -0.16206445       0.08276804
C        2.23256500      -0.64707032      -1.17801446
C        3.30748383       0.33306826      -0.64254856
C        4.54958459      -0.49836438      -0.21890826
O        3.84709826      -1.05125194       0.93117806
C        2.86426948      -0.02057937       0.80533912
C        2.51882658       1.67107123      -0.76301645
O        1.25429065       1.23458070      -0.22527632
H        0.05008588      -0.28438217       1.59311916
H       -0.47233630      -0.91775163       0.00199501
H        0.62430094      -1.87292826       1.02948191
H        2.51492967      -1.69638816      -1.09640636
H        1.73061327      -0.42726462      -2.12434344
H        4.89004807      -1.30298059      -0.89037625
H        5.40745463       0.11692133       0.08379458
H        2.88384512       0.69803063       1.63731871
H        2.92953042       2.49962079      -0.17095901
H        2.39809493       2.02568460      -1.79066408
