19
Properties=species:S:1:pos:R:3 Energy:=T 1364.3386071=T pbc="F F F"
C        1.25920931       0.53606115      -0.68008917
C       -0.04222255      -0.15108208      -0.24804929
C       -0.39586244       1.10536018       0.49054495
C       -1.46576192       2.07694976       0.01881423
C       -1.75985324       2.38687627       1.50724700
O       -0.95551463       3.50316211       1.93652303
C        0.13797078       2.62903438       2.24902039
C       -0.70950098       1.32743218       1.96481200
O        0.99620638       1.70456372       0.21888021
H        2.18268849       0.00757011      -0.42670205
H        1.28946528       0.85520449      -1.72325008
H       -0.72392761      -0.42441879      -1.05979551
H        0.10468268      -1.02082512       0.39707444
H       -1.06738493       2.93981452      -0.53044613
H       -2.29278176       1.60759208      -0.51983203
H       -2.79759895       2.41978546       1.84727683
H        0.80747872       2.64893828       1.46521826
H        0.55972803       2.78656803       3.24577301
H       -0.79215110       0.51222321       2.67480989
