19
Properties=species:S:1:pos:R:3 Energy:=T 1543.1894454=T pbc="F F F"
C        1.37358275      -0.03323091      -0.08289056
O       -0.02067709       0.04106345       0.13242700
C       -0.45385258       0.78929315       1.25769531
C       -1.96550634       0.66143382       1.26526517
C       -2.66000071       1.34162525       2.42360334
C       -3.35364152       2.41592250       2.02461868
C       -3.42286983       2.45527217       0.55246070
O       -3.94469763       1.22175844      -0.02118302
C       -2.55252213       1.39758113       0.05893737
H        1.89210406      -0.60452022       0.70032388
H        1.47289684      -0.54492683      -1.03717547
H        1.84799205       0.95500618      -0.16489360
H       -0.02864763       0.38576565       2.18772972
H       -0.11357340       1.83161798       1.14420692
H       -2.20499119      -0.40795833       1.19908406
H       -2.58224365       0.99067029       3.44599895
H       -3.87133137       3.11760237       2.65931013
H       -3.66138482       3.36647630       0.01795872
H       -2.00921693       1.41609641      -0.88196824
