19
Properties=species:S:1:pos:R:3 Energy:=T 348.9611223=T pbc="F F F"
C       -0.66545160      -1.48030429      -2.58789489
C       -1.62461475      -1.37839202      -1.39684671
C       -2.55887093      -0.12124290      -1.35982249
C       -2.30046343       0.44739341       0.05025191
C       -0.95318823       1.18142533       0.06179078
C       -0.01229288      -0.02020545      -0.07113218
O        1.18905825      -0.02579418      -0.12205881
C       -0.96420988      -1.24484788      -0.00966281
O       -2.03112614      -0.75335468       0.81264388
H       -0.02296317      -2.36597334      -2.49315368
H       -1.24142833      -1.57420107      -3.51713769
H       -0.02425605      -0.60076543      -2.67382738
H       -2.24665356      -2.27887319      -1.39128413
H       -2.36783570       0.61508768      -2.15396990
H       -3.60739630      -0.43525036      -1.44949253
H       -3.12534940       0.99846398       0.49403475
H       -0.80244459       1.90106049      -0.74857887
H       -0.76879800       1.70011077       1.01106734
H       -0.52073536      -2.14625697       0.41652332
