19
Properties=species:S:1:pos:R:3 Energy:=T 900.6338930=T pbc="F F F"
C        2.39314133       1.75182490      -1.13613083
C        1.51944103       0.65404423      -0.52454359
C        1.90365514      -0.67054000      -1.13959002
C        1.34110496      -1.07940514      -2.51333237
O        0.98431077      -2.39603214      -2.03306185
C        1.41979196      -2.08757043      -0.68771145
C        2.86815959      -2.52751559      -0.41327933
C        3.35352402      -1.15701745      -0.91824570
O        4.44829483      -0.71114176      -1.14363522
H        2.05895136       2.75137574      -0.84740992
H        3.43672584       1.61270781      -0.83796327
H        2.35742255       1.68107847      -2.22982331
H        1.64669392       0.60424555       0.56459369
H        0.45892221       0.85449362      -0.70088499
H        0.44970530      -0.50432281      -2.80833149
H        2.04837710      -1.11047759      -3.35324852
H        0.64611992      -2.24925639       0.06344138
H        3.12585011      -2.71773423       0.63242872
H        3.19139835      -3.36513569      -1.03677115
