19
Properties=species:S:1:pos:R:3 Energy:=T 903.2666617=T pbc="F F F"
C       -4.05886683       0.94176736       1.25347038
C       -2.64894094       0.39497680       1.20413806
O       -1.68294967       1.47308196       1.16285626
C       -1.18611389       1.06087563      -0.12757703
C       -1.06344688       2.13692476      -1.16710893
C       -2.16698129      -0.19293787      -0.13670139
C       -0.98868900      -1.17344276       0.01354926
C       -0.03487552       0.04523983       0.09457683
O        1.14834768       0.14906164       0.24446087
H       -4.22112400       1.41539827       2.22472636
H       -4.20821525       1.69637598       0.48014999
H       -4.80438634       0.14850785       1.12611380
H       -2.44126918      -0.25814712       2.06051868
H       -0.82113036       1.71279094      -2.14925870
H       -1.98928885       2.71233430      -1.27833193
H       -0.25856666       2.82742713      -0.89383230
H       -2.87231682      -0.37733857      -0.95288575
H       -0.97544477      -1.85784232       0.86935087
H       -0.81954097      -1.77697364      -0.88152545
