19
Properties=species:S:1:pos:R:3 Energy:=T 2749.4423287=T pbc="F F F"
C        1.19292507      -0.55275976       0.92351567
C        1.03881202      -0.08061549      -0.49251251
C        2.03615840      -0.34481645      -1.56963673
C        2.10475171       1.00375784      -0.89339976
C        3.08981081       1.25682219       0.19057223
O        3.95870762       2.09302025       0.07457496
C        1.79261028       2.25750240      -1.67862311
C        1.44815900       3.51450926      -0.99590371
O        0.44250718       2.74221830      -1.66320612
H        0.43922088      -1.25091724       1.25730231
H        2.20521109      -0.91997354       1.05651731
H        1.23172945       0.33687931       1.53932287
H        0.03244882       0.15927873      -0.81432711
H        2.80974736      -1.09631995      -1.45786437
H        1.61494028      -0.25725227      -2.56285403
H        3.02733878       0.71556728       1.12842612
H        2.35056377       2.34715420      -2.61203297
H        1.38934661       3.54482565       0.09253725
H        1.66037029       4.47763007      -1.45479754
