19
Properties=species:S:1:pos:R:3 Energy:=T 613.1035737=T pbc="F F F"
C       -0.44518311       2.07283950      -1.30446841
C       -0.76244264       1.34477147       0.01067775
C       -2.19765643       0.80956118       0.05909968
C       -2.91441612       0.68775131       1.44244364
C       -2.60325253      -0.83588656       1.46079490
C       -2.02799109      -0.73790484       0.02686926
O       -0.64696349      -1.05366594      -0.05223921
C        0.10957709       0.06797341       0.07964171
O        1.30719285       0.02493929       0.06947559
H       -0.39869785       1.34673929      -2.12809081
H       -1.20339558       2.82053551      -1.56845442
H        0.52087781       2.57341680      -1.25237762
H       -0.53942243       1.98897501       0.86268392
H       -2.81628515       1.25246562      -0.72278640
H       -2.48127170       1.28123622       2.25080985
H       -3.98510386       0.88948267       1.39586767
H       -1.85710055      -1.15039530       2.18911159
H       -3.48376396      -1.47344190       1.52934266
H       -2.55859267      -1.30898265      -0.73850185
