19
Properties=species:S:1:pos:R:3 Energy:=T 156.3290722=T pbc="F F F"
C        2.28054895       1.16012953      -5.49709428
C        1.37942347       1.77000594      -4.41432316
C       -0.00012409       2.22691655      -4.92421998
O        1.12635234       0.68429708      -3.50604742
C        1.25017422       1.00918728      -2.25112744
C        0.91011097       0.16025387      -1.21264612
C        1.23921810       0.86061987      -0.05450810
C        1.72833627       2.08478739      -0.46965594
O        1.76954740       2.19088732      -1.81112393
H        3.01564858       0.48061923      -5.05473512
H        1.64550512       0.55260339      -6.15389041
H        2.81377638       1.91212251      -6.08845420
H        1.88816202       2.54357260      -3.84213602
H       -0.71878422       2.28650185      -4.10004331
H        0.00801960       3.19049261      -5.45294326
H       -0.36120750       1.45566978      -5.61789020
H        0.49688104      -0.82917912      -1.33227126
H        1.15787006       0.51126016       0.96415475
H        2.10927204       2.87641479       0.14548291
