19
Properties=species:S:1:pos:R:3 Energy:=T 1498.0370722=T pbc="F F F"
C       -0.87870071      -0.94058207       1.21675775
C       -1.83080335      -1.76878539       0.37020870
C       -1.99693001      -3.21137841       0.53609416
O       -1.19731467      -2.67375794      -0.52103584
C       -0.33740298       0.16891722       0.38896588
C       -0.65705529       1.46256035       0.42812812
C       -0.00657931       2.15397583      -0.73952533
O        0.61255801       1.11502807      -1.49876356
C        0.41437565      -0.13989845      -0.87518599
H       -1.39536720      -0.52244281       2.08832283
H       -0.05478258      -1.57406844       1.56137903
H       -2.63636526      -1.17713410      -0.07315359
H       -1.43790739      -3.71851623       1.31637167
H       -2.92948863      -3.67506093       0.23730204
H       -1.24181914       1.97965789       1.17593853
H       -0.72391036       2.69664861      -1.37439669
H        0.75589080       2.88698445      -0.42843953
H       -0.20800110      -0.81461636      -1.47983121
H        1.37661391      -0.64865221      -0.71757738
