19
Properties=species:S:1:pos:R:3 Energy:=T 3079.8134307=T pbc="F F F"
O       -0.64904466       0.71794187      -4.02227234
C       -0.16451841      -0.48876692      -4.52930741
C       -0.02188116      -1.69270281      -3.63887557
C        0.39135630      -2.95613266      -4.42341770
C        1.68669749      -2.18174688      -4.84789667
C        2.96066200      -2.70170109      -4.25046359
C        4.16895814      -2.46310857      -5.03326646
O        3.58552949      -3.76825706      -4.98026512
C        1.20734461      -0.91918079      -4.11286701
H       -1.01684752       0.55462789      -3.14729352
H       -0.41667677      -0.61178030      -5.58253778
H       -0.50418325      -1.72517934      -2.66735075
H        0.55302650      -3.81234313      -3.75762784
H       -0.25983424      -3.28104082      -5.24409486
H        1.79561393      -2.08811129      -5.93020371
H        2.99550407      -2.85335809      -3.17136661
H        4.00018563      -1.92782201      -5.96726844
H        5.13908971      -2.34366816      -4.56888834
H        1.83437722      -0.17832946      -3.62296524
