19
Properties=species:S:1:pos:R:3 Energy:=T 25.9008301=T pbc="F F F"
C        0.01744844      -4.91177394      -0.26772148
C       -0.73879863      -3.58476766      -0.04582090
C        0.19484769      -2.37129857      -0.13014977
O       -0.58193644      -1.15377815      -0.10577837
C        0.13093845      -0.00188937      -0.06434876
C       -0.80938749       1.17336212       0.01191360
O        1.33141519       0.07265490      -0.14135029
C       -1.47374585      -3.61986336       1.21249311
C       -2.05560539      -3.63214536       2.26509477
H        0.80091208      -5.07621926       0.48664469
H       -0.70298474      -5.73552553      -0.21285859
H        0.48942013      -4.90013384      -1.26334695
H       -1.46183718      -3.49277213      -0.87208409
H        0.96612536      -2.31850813       0.65454631
H        0.71438068      -2.40945421      -1.09837766
H       -1.39875147       1.09793287       0.92588279
H       -0.18654333       2.06862372      -0.00946311
H       -1.48241580       1.12865313      -0.84528336
H       -2.49254152      -3.60492724       3.23215825
