19
Properties=species:S:1:pos:R:3 Energy:=T 1051.8717073=T pbc="F F F"
O       -0.80268281       0.99436519      -0.30071418
C       -0.13852816       0.64887901      -1.48338548
C        0.14419899       1.84836273      -2.40933834
C        1.65314587       1.69933427      -2.09731015
C        1.43997582       0.30025454      -1.48022892
C        1.14139840      -0.82003507      -2.51288631
C       -0.37806116      -0.67392019      -2.23161495
C        2.20702574      -0.10130906      -0.27590745
O        2.71720419      -1.18354940      -0.11206648
H       -0.54021491       0.36814747       0.38644691
H       -0.10716929       1.69083485      -3.46356406
H       -0.31562442       2.77932130      -2.07482157
H        2.33903409       1.77421821      -2.93965490
H        1.95209770       2.40410005      -1.32400251
H        1.45130096      -0.54831390      -3.52873436
H        1.54892513      -1.80076567      -2.26368374
H       -1.03322588      -0.64055623      -3.10509878
H       -0.73788173      -1.43772460      -1.53866274
H        2.19458132       0.65461638       0.54493744
