19
Properties=species:S:1:pos:R:3 Energy:=T 3055.4558398=T pbc="F F F"
C        1.32206387      -0.07200283       0.00415626
O       -0.08870615       0.06453919       0.00809834
C       -0.60422594       0.76817728       1.12201303
C       -2.07639820       0.99911268       0.92151069
C       -2.88340136       1.29518038       2.20065319
C       -4.23655468       1.79402382       2.11001795
O       -5.08964367       0.99541164       1.43173697
C       -4.36577222      -0.08490428       1.07304102
C       -2.98353357      -0.07344000       1.50835237
H        1.69436446      -0.57710228       0.90842142
H        1.58122693      -0.67484929      -0.87221389
H        1.83040510       0.90233489      -0.07198271
H       -0.45790124       0.18185438       2.04163843
H       -0.08747339       1.73095534       1.22870459
H       -2.37159920       1.41613655      -0.03188523
H       -2.31727611       1.42803057       3.12038481
H       -4.59673293       2.77574428       2.38738979
H       -4.80274879      -0.76648840       0.35398266
H       -2.49484363      -0.96228419       1.90265161
