19
Properties=species:S:1:pos:R:3 Energy:=T 1847.7795879=T pbc="F F F"
C       -0.67417244      -1.23617074      -0.10576121
C       -0.69415691      -0.68112920      -1.51477304
O       -1.86776440      -0.08899001      -1.99866161
C       -1.73080948       1.31331907      -2.28600886
C       -1.38813197       2.16545780      -1.04175339
C       -0.43367529       1.46181612      -0.06432569
C        1.09837082       1.74519965      -0.13329975
O        1.39061022       0.35136092      -0.42596109
C        0.00051720       0.05799299      -0.43101643
H       -1.63460556      -1.20094339       0.40200395
H       -0.06670852      -2.11066157       0.11219666
H       -0.13520766      -1.23907438      -2.26940047
H       -0.99192913       1.46087565      -3.09257646
H       -2.70547319       1.60973363      -2.67151929
H       -0.92896658       3.10501296      -1.36960500
H       -2.30944306       2.46733562      -0.53282371
H       -0.80915279       1.55447233       0.95768363
H        1.42223826       2.39601452      -0.95352251
H        1.57070020       2.04344794       0.80509401
