19
Properties=species:S:1:pos:R:3 Energy:=T 1395.5601992=T pbc="F F F"
O        1.31994254      -0.33742048      -0.09318283
C        0.13178920      -0.18010226      -0.23125050
C       -0.52386524       0.68663254      -1.26675104
C       -1.04098902       2.01963920      -0.69480320
C       -1.91263579       2.71275040      -1.72535182
C       -3.36424027       2.31671359      -1.83433688
C       -2.41613093       1.93332889      -2.92525884
C       -2.06138117       0.46615557      -3.06480875
O       -1.56637392      -0.07626847      -1.84305003
H       -0.62627940      -0.70171931       0.39165404
H        0.27591994       0.92221583      -1.98416696
H       -1.59471270       1.89371101       0.24686490
H       -0.18739689       2.65665817      -0.43395483
H       -1.63529369       3.73606475      -1.94509799
H       -3.66041650       1.48370437      -1.21177368
H       -4.13806274       3.05804810      -1.99699475
H       -2.41391991       2.48991967      -3.85218677
H       -2.94164436      -0.14024110      -3.31058809
H       -1.32585706       0.32348982      -3.87293291
