19
Properties=species:S:1:pos:R:3 Energy:=T 2707.5106213=T pbc="F F F"
O       -2.81527069       0.90235840       0.82904297
C       -1.93420428       0.44043195       1.81919662
C       -1.92729413      -1.02941327       2.34988042
C       -0.44389904      -0.81307793       2.72917368
C       -0.65599413      -0.24928761       1.30421643
C       -1.44092537      -1.54447665       0.96990707
C        0.39343784       0.48098964       0.55102800
C        0.41976673       0.48025273      -0.89863974
O        1.37380001      -0.28498296      -0.13578553
H       -3.71897134       0.84350024       1.15932482
H       -1.68475075       1.21075227       2.55777790
H       -2.69119457      -1.49780403       2.97801499
H       -0.21314852      -0.08649913       3.50669582
H        0.17521882      -1.70207292       2.76609591
H       -2.16026972      -1.49375989       0.15143556
H       -0.86886127      -2.47163346       0.99374392
H        0.77140573       1.32701388       1.11833453
H       -0.33832721      -0.11900444      -1.39683889
H        0.82932183       1.30580300      -1.47325525
