19
Properties=species:S:1:pos:R:3 Energy:=T 1847.2588590=T pbc="F F F"
C       -1.27333113       1.69280459      -1.30698485
C       -1.07076862       1.06287490       0.06420922
C       -1.07614580       2.06149492       1.20235966
O       -1.91876416      -0.08660207       0.32545164
C       -0.87702198      -1.03162805       0.07285552
C       -1.14802896      -2.38947134       0.62120749
C       -1.17128919      -2.15343584      -0.86556797
C        0.14817894       0.07431784       0.05262405
O        1.33686040       0.18034871       0.14135886
H       -1.43307542       0.92164078      -2.06103489
H       -2.12171272       2.38461925      -1.30099369
H       -0.36805646       2.25356469      -1.57222084
H       -1.11432349       1.52983214       2.15568618
H       -0.15507818       2.65399686       1.16975495
H       -1.94286478       2.72493651       1.12042577
H       -0.40272028      -3.00482680       1.10664544
H       -2.14226576      -2.44956972       1.06085151
H       -0.41977197      -2.58725487      -1.51346515
H       -2.16757114      -2.12195309      -1.29763381
