19
Properties=species:S:1:pos:R:3 Energy:=T 877.3870732=T pbc="F F F"
C       -1.34343284      -0.21248715      -0.18934371
C       -0.75115932      -1.36872353      -1.02440592
O       -0.53486897      -2.37607978       0.00384759
C        0.07691658      -1.61446177       1.06875718
C        0.12103449      -0.28393779       0.36653612
O        0.72959175       0.86429656       0.84778811
C        0.97745812       1.65967004      -0.31977352
C        0.93877253       0.74171512      -1.59142413
C        0.64093853      -0.65046438      -1.03378572
H       -1.61459373       0.69379074      -0.72579618
H       -2.14995928      -0.50984981       0.48701722
H       -1.20992674      -1.80436769      -1.90775806
H       -0.54009642      -1.59207258       1.96723117
H        1.06268747      -2.01541456       1.30593689
H        0.21733805       2.44327778      -0.38006944
H        1.94888359       2.12134992      -0.16144576
H        0.18089047       1.08422178      -2.30497341
H        1.89460564       0.76636210      -2.12553328
H        1.48568023      -1.34406505      -1.11031578
