19
Properties=species:S:1:pos:R:3 Energy:=T 1417.5401195=T pbc="F F F"
O       -1.54318315       3.77311453      -0.24694720
C       -1.23902034       2.40221127      -0.38038381
C       -1.21600841       1.94461007      -1.85604641
C        0.24144150       2.14761647      -2.33594611
C        1.05983887       1.96045042      -1.07148872
C        0.65792046       0.73837735      -0.28553373
C        1.69057163       0.12096949       0.56071456
O        1.65410838      -1.00843622       0.98934142
C        0.16656146       2.11290343       0.12689629
H       -0.78822110       4.26374381      -0.60742841
H       -1.98656891       1.84501148       0.19637463
H       -1.43672074       0.87267418      -1.87985803
H       -1.94038887       2.48658714      -2.46274032
H        0.53360270       1.42461571      -3.11508081
H        0.38247086       3.15724256      -2.73715374
H        2.07105683       2.35789729      -1.03195747
H       -0.04372802       0.04335335      -0.74443729
H        2.56834494       0.79222225       0.78301560
H        0.53487208       2.58955543       1.03355917
