19
Properties=species:S:1:pos:R:3 Energy:=T 1439.1377579=T pbc="F F F"
C        1.22665699      -0.58768008       0.69866259
O       -0.16849678      -0.34461931       0.53044714
C       -0.58276324       0.94592652       0.98424272
O        0.05214091       1.39354493       2.15835381
C       -0.44454696       0.87853515       3.36559251
C       -0.88378244      -0.54140646       3.48666581
C       -1.92048526       0.60460954       3.49543341
C       -2.67355133       0.97523784       2.29060447
C       -2.09100227       0.96790348       1.08104674
H        1.46294819      -0.83741681       1.73236765
H        1.49457739      -1.41610589       0.04876372
H        1.78427405       0.29720119       0.38469524
H       -0.20296374       1.64606395       0.23114290
H        0.08523441       1.33727701       4.18109762
H       -0.79923248      -1.19747644       2.62892263
H       -0.60042391      -1.02605214       4.41017159
H       -2.36162203       0.90280989       4.44844051
H       -3.71471759       1.28084839       2.41164933
H       -2.64189584       0.93368957       0.14547862
