19
Properties=species:S:1:pos:R:3 Energy:=T 185.4341857=T pbc="F F F"
O        5.27940696       1.54444851       1.47411768
C        4.99717925       0.38942800       2.25297438
C        3.66154202       0.46556550       3.05152972
O        2.81567865      -0.58468601       2.59860448
C        3.21531876      -0.93841196       1.28227980
C        2.54849483       0.01226022       0.25187240
C        1.09695460       0.15258448       0.34957952
C       -0.09739684       0.30339041       0.34977247
C        4.75754659      -0.80824009       1.29089591
H        5.18524808       2.33232942       2.01762313
H        5.83908076       0.20743213       2.93758795
H        3.79990769       0.34323318       4.13353029
H        3.17622634       1.43645774       2.89366225
H        2.87029448      -1.96373480       1.10716359
H        3.01267391       1.00329038       0.32087891
H        2.78972029      -0.35041672      -0.75395474
H       -1.16006466       0.33686304       0.25439297
H        5.22840963      -1.72480482       1.65220043
H        5.14782840      -0.58152839       0.29384607
