19
Properties=species:S:1:pos:R:3 Energy:=T 1848.7048750=T pbc="F F F"
O        0.39859738       0.59154220       0.20619756
C       -0.87563230       0.44868016       0.72284413
C       -1.49623894       0.70101697       2.11751792
C       -2.25863675      -0.62858892       2.03136455
C       -1.77065632      -0.78966179       0.55717312
O       -2.77926658      -0.70802053      -0.41915044
C       -3.06011061       0.59870658      -0.90205031
C       -3.05976935       1.68130632       0.19532966
C       -1.74135160       1.65548835       0.96701049
H        1.00437835       0.02061906       0.68840912
H       -1.07390516       1.08996726       3.03550135
H       -1.83459070      -1.37584422       2.70686792
H       -3.34038553      -0.60599964       2.18532206
H       -1.23233112      -1.72426732       0.37372581
H       -2.28842924       0.87645801      -1.63814604
H       -4.03236317       0.52272523      -1.40137626
H       -3.17695342       2.65864940      -0.29113373
H       -3.91401579       1.56581224       0.87835307
H       -1.22478965       2.60894077       1.06207949
