19
Properties=species:S:1:pos:R:3 Energy:=T 73.0891178=T pbc="F F F"
C        1.38849808       0.11087786      -0.58348607
O        0.06814950      -0.22360225      -0.10059939
C       -0.35874491       0.51324549       1.01858866
C        0.08838758       2.00257190       0.98149650
O        0.44269641       2.60081540       1.96028114
C       -1.88181293       0.45338163       1.20505215
C       -2.40250036      -0.96637623       1.47931911
C       -2.19278634       1.37785181       2.30738922
C       -2.76094370       1.99448055       3.17001953
H        2.18282037       0.13306586       0.20521914
H        1.64220261      -0.67800315      -1.31399412
H        1.38801424       1.10670662      -1.09439358
H        0.06364542       0.02162474       1.92058782
H        0.32507113       2.39059895      -0.05776748
H       -2.31972119       0.79990436       0.26319825
H       -1.72849889      -1.48527331       2.17127852
H       -3.40576107      -0.90166030       1.91916256
H       -2.44898727      -1.53505716       0.54184972
H       -3.46401524       2.41252766       3.86175771
