19
Properties=species:S:1:pos:R:3 Energy:=T 1551.9955630=T pbc="F F F"
C        0.58360237       0.89802397      -0.26141729
C        1.02099094      -0.55403206      -0.05352190
C        1.88488025      -1.03150797      -1.20750613
O        3.24299368      -0.61959321      -1.05792770
C        2.87662922      -1.96267955      -0.73649159
C        2.71087987      -2.15458376       0.75880949
C        1.95191245      -0.86381360       1.14708922
C        1.30590860      -0.88683122       2.49817731
O        1.68816510      -0.12353442       3.35221706
H       -0.13786421       1.22631893       0.49593275
H        1.44297418       1.57735961      -0.24620087
H        0.11347555       0.97029075      -1.24633169
H        0.12429358      -1.18614259      -0.01569999
H        1.49555735      -0.99416107      -2.21910860
H        3.31570115      -2.73733263      -1.35763709
H        2.12739117      -3.06422575       0.95587790
H        3.67302544      -2.25763622       1.27356253
H        2.67884900      -0.04782627       1.18882676
H        0.44523439      -1.55967262       2.69150998
