19
Properties=species:S:1:pos:R:3 Energy:=T 1363.8545732=T pbc="F F F"
C        2.48471744      -1.04734426       1.11972154
C        1.71777106      -0.57096611      -0.12410419
C        2.42534920      -0.91723346      -1.41774592
C        2.14510427      -2.25859262      -2.03321050
C        1.74502961      -1.00176448      -2.79152852
C        2.74648195      -0.48043530      -3.75849938
O        2.63484647      -0.31690580      -4.93981751
O        3.92141796      -0.17090778      -3.11445276
C        3.80405131      -0.31767857      -1.68682362
H        2.66112253      -2.12684056       1.13850061
H        3.46368235      -0.55923123       1.17459369
H        1.94763494      -0.78367608       2.03372174
H        0.70403368      -0.99060739      -0.15090158
H        1.57355350       0.51434990      -0.04051531
H        2.96742195      -2.86249827      -2.38721999
H        1.29839642      -2.83837816      -1.67158575
H        0.69880198      -0.77327531      -2.93265616
H        4.64418352      -0.92501764      -1.31242751
H        3.92540969       0.67765330      -1.23547908
