19
Properties=species:S:1:pos:R:3 Energy:=T 1344.3378093=T pbc="F F F"
C       -0.85712808       3.97234507       0.79373709
C       -1.04413654       5.12115379      -0.18854733
C        0.04082758       4.09894770      -0.39671613
O       -0.19928383       3.17044811      -1.42069654
C        0.63795044       2.06085039      -1.23418870
O        0.68103460       1.52297127       0.09851519
C        0.67933511       0.09769061       0.02353563
C        0.35825117      -0.22636641      -1.40459048
C        0.20874393       0.90759263      -2.09207436
H       -0.46304179       4.13811688       1.78807554
H       -1.62894852       3.21467950       0.75171387
H       -1.88515357       5.09026457      -0.87178459
H       -0.73569923       6.12080628       0.09969981
H        1.09540134       4.36807242      -0.29689033
H        1.64682402       2.44508903      -1.50134348
H        1.65992595      -0.28558091       0.32234755
H       -0.05049493      -0.31827592       0.73032724
H        0.19668496      -1.23505990      -1.76199032
H       -0.09008353       1.02851557      -3.12787931
