19
Properties=species:S:1:pos:R:3 Energy:=T 1915.9817416=T pbc="F F F"
C       -3.94006574       3.24556927      -1.00350376
C       -2.68255262       3.39822150      -0.14275234
C       -2.08163752       2.05886055       0.41240165
C       -0.91097032       2.19683410      -0.57845477
C       -0.23561059       1.04283499      -1.26211392
C        0.04105549      -0.02960610      -0.20966382
O       -0.46246096      -1.12219956      -0.22116050
O       -0.19680898       3.38982893      -0.28134348
C       -1.42333865       3.54099051      -1.01324657
H       -4.73946397       2.79349505      -0.40635156
H       -4.28803169       4.21963594      -1.36898176
H       -3.77263734       2.61462829      -1.88369162
H       -2.82100160       4.15677194       0.63521039
H       -1.75403895       2.12505924       1.45201495
H       -2.69919256       1.17016188       0.28930237
H       -0.90666760       0.57840010      -1.98812163
H        0.67680905       1.37874861      -1.76527552
H        0.57343812       0.37124866       0.67822545
H       -1.32771431       4.13982734      -1.90947481
