19
Properties=species:S:1:pos:R:3 Energy:=T 1773.8604623=T pbc="F F F"
O        0.48154029       0.07312701       0.27293833
C       -0.77889284       0.50680905       0.72252090
C       -1.24570297       0.30281032       2.18804730
O       -1.47044533       1.70038895       2.35093526
C       -0.94562373       1.98524219       1.05659246
C       -1.58371454       3.02946014       0.13901873
C       -1.03138458       4.03111644       1.19519495
C        0.15894034       3.05077141       0.93988248
C       -0.20307771       3.03383835      -0.58172424
H        1.09789279       0.07864145       1.01261046
H       -1.50063302       0.18581777      -0.03270784
H       -2.15871300      -0.27995240       2.34454319
H       -0.46507808      -0.08274467       2.85681967
H       -2.57516035       3.02777154      -0.30761595
H       -0.95177846       5.09408865       0.97164598
H       -1.48210767       3.81581824       2.15029860
H        1.14861792       3.06276353       1.39644556
H        0.03085460       3.93683469      -1.15895144
H        0.08881629       2.14098712      -1.14455408
