19
Properties=species:S:1:pos:R:3 Energy:=T 1697.7954950=T pbc="F F F"
C        0.19572626      -0.18886948       0.23396277
C        1.55687693       0.33046293      -0.13569840
O        1.69529864       1.69785733       0.36405993
C        2.94452761       1.32927503       0.92325764
C        2.94116510       0.29877802       2.01999776
C        2.80387644      -0.16024704       0.60948256
O        3.91020361      -0.65280388      -0.08869324
C        4.46900222       0.49793717      -0.77552392
C        4.14608924       1.74082734       0.09937908
H       -0.02893620       0.01350983       1.28237607
H       -0.52477061       0.33379828      -0.40086877
H        0.10428052      -1.26130689       0.03885172
H        1.75878355       0.25416096      -1.20585014
H        3.91237518       0.09638725       2.44614789
H        2.09350889       0.25994327       2.69295425
H        5.53566121       0.32019538      -0.93789962
H        3.97812826       0.58977394      -1.75100944
H        4.97911759       2.00815185       0.74657850
H        3.83802537       2.59404811      -0.50492435
