19
Properties=species:S:1:pos:R:3 Energy:=T 31.3992729=T pbc="F F F"
C        0.49522353       0.82136413       0.01644164
C        1.00213874      -0.63939317       0.01042334
C        1.89016434      -0.92649666       1.23151279
O        1.66557023      -1.75126589       2.07793396
C        1.79051825      -1.06176265      -1.13937660
C        2.44046517      -1.40984890      -2.08999204
C        3.23407389      -1.83660145      -3.24105247
C        3.68700199      -3.28299195      -3.08820233
O        4.44107921      -3.64228107      -4.24495184
H       -0.04309927       0.99896413       0.95292643
H        1.31982509       1.53886348      -0.05240676
H       -0.18458297       0.94324652      -0.82668645
H        0.13577854      -1.29834539       0.10431234
H        2.71418864      -0.18579901       1.34357923
H        2.64607622      -1.72561951      -4.15546990
H        4.11371789      -1.19526519      -3.34300411
H        4.28469801      -3.38475952      -2.16722813
H        2.80586406      -3.93695275      -2.96328016
H        4.62569843      -4.58071589      -4.15263822
