19
Properties=species:S:1:pos:R:3 Energy:=T 1978.2002387=T pbc="F F F"
C       -2.39323524      -1.80935905       0.17410074
C       -2.28043547      -0.40314194       0.67441606
O       -3.53901946       0.16505885       1.16790377
C       -2.53052177       1.12517584       1.54092540
C       -1.40830996       0.10277008       1.88667247
C       -0.39617380       0.80222308       0.97349535
O        0.50448573       0.02841026       0.23426111
C       -1.70476536       1.00720902       0.22021361
C       -1.84646916       1.86081393      -1.00433598
H       -2.77470688      -2.42153391       0.99871247
H       -3.09407660      -1.87777047      -0.65872818
H       -1.42771378      -2.21794204      -0.13635276
H       -2.85577073       2.03822155       2.04324746
H       -1.23655282      -0.41264764       2.83180831
H        0.03789512       1.73016568       1.37867408
H        1.21869886      -0.26733560       0.81862301
H       -1.40516325       1.41906635      -1.90235008
H       -2.90402309       2.07549276      -1.18540905
H       -1.34774200       2.81708385      -0.80409809
