19
Properties=species:S:1:pos:R:3 Energy:=T 1139.9635977=T pbc="F F F"
C       -2.93310320       1.16810126      -2.12134894
C       -3.11250116       0.17189796      -0.98002388
C       -4.00176020       0.54669156       0.24558366
C       -3.08219740      -0.26864408       1.19719075
C       -2.03726526      -0.10102759       0.09501037
C       -0.79448094      -0.95154348      -0.06393460
C       -0.11899623       0.41054245       0.22369395
O        0.99773300       0.81479811       0.34165141
O       -1.26886711       1.14414019       0.36572331
H       -2.62904954       2.14878970      -1.75337115
H       -2.17740571       0.82507335      -2.83323786
H       -3.86870564       1.28926754      -2.68118138
H       -3.41607060      -0.79409047      -1.40297731
H       -3.91910348       1.60791891       0.47833930
H       -5.05542400       0.27001043       0.19243861
H       -2.80825952       0.19848278       2.13947941
H       -3.38160303      -1.30704695       1.35409272
H       -0.62555470      -1.70790097       0.70931867
H       -0.61481522      -1.40980060      -1.04028707
