19
Properties=species:S:1:pos:R:3 Energy:=T 900.0432690=T pbc="F F F"
O        0.20097437      -1.14801796       0.04517972
C        0.22922526       0.05854290      -0.00341635
C       -0.21831259       0.90568596      -1.18145298
C       -1.00238434       2.09854301      -0.64196498
C       -1.93138735       2.88852595      -1.60528728
C       -3.16471869       2.38837945      -0.81808588
O       -3.57412979       3.26769933       0.24680900
C       -2.74198313       2.59568084       1.22441902
C       -2.23336518       1.62601014       0.16587563
H        0.52739769       0.65951590       0.89402447
H        0.63417829       1.25663257      -1.77604180
H       -0.84071191       0.28088753      -1.83097523
H       -0.36067917       2.78386045      -0.07242082
H       -1.81352194       3.97103842      -1.56587794
H       -1.91623489       2.55164268      -2.64249229
H       -3.99877572       1.92295140      -1.34931233
H       -1.98726849       3.25702997       1.66942995
H       -3.32233526       2.11455848       2.02119058
H       -2.46437795       0.57187169       0.29787047
