19
Properties=species:S:1:pos:R:3 Energy:=T 1963.7304690=T pbc="F F F"
C       -0.44950291       0.93442706       0.70062379
C       -1.56629937       1.96947083       0.43670521
C       -2.70918321       1.16490326      -0.22249974
C       -1.09096225       3.07959030      -0.45064811
O       -0.61006133       2.67896122      -1.72554822
C       -0.42166799       4.09387025      -1.83320072
C       -1.68970771       4.51917229      -1.03862352
O       -1.00843969       5.34317882      -0.08564105
C       -0.01333379       4.34889378      -0.35417887
H       -0.78844677       0.19911018       1.43744282
H       -0.27484841       0.40232234      -0.24008911
H        0.49330780       1.36816934       1.04434966
H       -1.90308617       2.42115366       1.37410941
H       -3.11113637       0.43606085       0.48859828
H       -3.53133717       1.77875473      -0.59989666
H       -2.27051696       0.60587839      -1.05535829
H       -0.00594801       4.48016648      -2.75471669
H       -2.65676481       4.89782550      -1.36224754
H        0.95253486       4.53022021       0.11211903
