19
Properties=species:S:1:pos:R:3 Energy:=T 1483.8789236=T pbc="F F F"
O        2.65316021      -1.13861470       2.21935445
C        3.24569672      -1.22339582       0.93741732
C        2.79367367      -0.06292995       0.04252989
C        2.92597797      -0.38642737      -1.46276892
C        2.34547255       0.75740429      -2.27198573
C        3.13095646       1.58313394      -3.19407078
O        2.82229293       2.04731283      -1.87556385
C        1.39926340       0.25651990       0.29426569
C        0.22769158       0.45352246       0.13063603
H        1.71659247      -1.36797403       2.11298869
H        4.33605383      -1.18464466       1.06776127
H        3.03256989      -2.20498547       0.48069761
H        3.38045149       0.83137614       0.27647251
H        3.97608441      -0.59951791      -1.70863513
H        2.32205611      -1.27400654      -1.68750157
H        1.27144840       0.68810885      -2.46513273
H        4.16228293       1.32475103      -3.42271304
H        2.61197575       2.11068704      -3.98817149
H       -0.81338968       0.45509096       0.32016996
