19
Properties=species:S:1:pos:R:3 Energy:=T 1474.2942339=T pbc="F F F"
C       -0.12946557      -0.02133324       0.23994386
C        1.27946586      -0.49447640       0.49802007
O        2.15106497      -0.31775616      -0.70016961
C        2.92848652      -0.94818444       0.36498758
C        1.79265070      -1.95172334       0.70577150
C        1.86112004      -2.59558392       2.07290413
C        2.53321922      -1.66748435       3.11261670
O        2.51689930      -0.28608272       2.79258162
C        2.40145206       0.04454308       1.45176698
H       -0.80779731      -0.17632022       1.08394759
H       -0.10939903       1.04796998       0.00795690
H       -0.51822085      -0.57831664      -0.62047313
H        3.97885915      -1.16920548       0.12360820
H        1.45507270      -2.62618237      -0.08583440
H        0.86944239      -2.93566011       2.39213221
H        2.46275315      -3.51037792       2.01401363
H        2.05237946      -1.74629979       4.08755623
H        3.58142988      -1.96858860       3.23532879
H        2.57096045       1.11511257       1.33057152
