19
Properties=species:S:1:pos:R:3 Energy:=T 1408.6477248=T pbc="F F F"
C       -2.31603736       1.85627104      -0.27461017
C       -1.11177040       2.00717651       0.65263029
C       -0.49948031       0.67568802       1.10955227
C        0.34155581      -0.00186087       0.05039872
O        1.54735359      -0.06075683       0.08193629
C       -0.13084435       3.18456544       0.40761939
C        0.30356032       3.37509210       1.89191617
C       -1.21960364       3.18495546       1.72068247
O       -1.21645700       4.18406580       0.63123060
H       -3.05376997       1.19222846       0.19009382
H       -2.77581507       2.82656469      -0.48343133
H       -2.02729851       1.40981760      -1.23659346
H        0.13935488       0.76368079       1.99141484
H       -1.33191602       0.01579551       1.38780407
H       -0.21855024      -0.34403742      -0.85039215
H        0.47588772       3.32861673      -0.49773641
H        0.90799323       2.64383053       2.42060551
H        0.61408342       4.39398931       2.13437410
H       -2.00636579       3.26482715       2.47390525
