19
Properties=species:S:1:pos:R:3 Energy:=T 2235.8209538=T pbc="F F F"
C        2.61739813      -1.05034124       1.08496108
C        1.72663096      -0.26942825       0.09633754
C        2.03862322      -0.63789116      -1.31693000
C        1.52913512      -0.11700087      -2.61332526
O        2.83916498       0.18420970      -3.06901815
C        3.36387853      -0.77089334      -2.09195942
C        2.91085269      -2.11432795      -2.70136994
C        1.49217784      -1.62113112      -2.38267870
O        0.31724176      -2.33601228      -2.30137221
H        2.43127894      -0.77274624       2.12387891
H        2.46622801      -2.13316937       1.00649926
H        3.66999093      -0.85715462       0.86451181
H        0.65932334      -0.46560909       0.26709048
H        1.85919946       0.81481967       0.22439703
H        0.69335080       0.50407126      -2.89276612
H        4.36878715      -0.57016221      -1.72951900
H        3.18292093      -2.20462585      -3.75797172
H        3.19472132      -2.98753249      -2.11452970
H        0.12411547      -2.52504598      -1.37316783
