19
Properties=species:S:1:pos:R:3 Energy:=T 1016.3966434=T pbc="F F F"
O        2.05331486       3.96639329      -1.77820068
C        1.04836835       3.09590896      -1.34445083
C       -0.24590965       3.10239163      -2.19508349
C        0.08032213       1.64586060      -2.63520992
C        1.21303448       1.55551760      -1.60628365
C        0.72011648       1.26317817      -0.16192607
C        0.78154009       2.80222769       0.14466673
C        1.61857196       0.34816276       0.63362093
O        1.26010368      -0.71777840       1.07349435
H        2.57569519       4.23420460      -1.01372664
H       -1.18102719       3.19265090      -1.63904272
H       -0.22809538       3.83732818      -3.00152398
H       -0.72780225       0.92315297      -2.52014624
H        0.46206270       1.60216897      -3.65389549
H        2.18273083       1.16153954      -1.91242067
H       -0.30408035       0.86905189      -0.14235229
H       -0.12145623       3.24034287       0.57015889
H        1.62575035       3.09653040       0.77697117
H        2.68948118       0.67061789       0.75132122
