19
Properties=species:S:1:pos:R:3 Energy:=T 1788.5502118=T pbc="F F F"
C        0.94260299       3.99443059       1.76291904
C        1.36506694       2.95281449       2.83971940
C        0.33668859       1.96486605       2.26044989
C       -0.07140321       2.98588288       1.18626455
C        0.48541416       1.64077594       0.77181203
C       -0.31827331       0.58633840       0.05539066
O        0.60357839      -0.12178980      -0.75955695
C        1.89885594       0.38768532      -0.51290998
O        1.77812015       1.56598111       0.24979663
H        0.45385721       4.87391150       2.19697214
H        1.73463412       4.30308296       1.07701459
H        2.40124912       2.61155578       2.77671134
H        1.13215864       3.26568905       3.86420855
H       -0.17095491       1.22903398       2.87086330
H       -1.01112875       3.29909964       0.74747305
H       -0.81528554      -0.11588659       0.74208950
H       -1.11134959       1.00453591      -0.58177952
H        2.49912883      -0.37329824       0.01871084
H        2.37224019       0.60196137      -1.48147982
