19
Properties=species:S:1:pos:R:3 Energy:=T 3029.5882533=T pbc="F F F"
O        1.22779692       0.17752462       0.48994898
C        0.04429201       0.05220259      -0.26861857
C       -0.70214904       1.38964324      -0.43085624
C       -1.92206534       1.23342958      -1.32073882
C       -1.74431896       1.18478017      -2.84707889
C       -2.86451817       0.61469158      -3.55524083
O       -4.05512838       1.17502582      -3.27485060
C       -3.78468353       2.23614141      -2.49573302
C       -2.38704182       2.40833308      -2.16996465
H        1.08582272       0.82467436       1.18416976
H        0.33680064      -0.31941276      -1.26185988
H       -0.62035607      -0.71469893       0.16175293
H       -1.02587978       1.77085412       0.54836975
H       -0.00372799       2.13110318      -0.84126172
H       -2.72002485       0.59799130      -0.93780048
H       -0.74295980       1.20600994      -3.26492843
H       -2.88574318      -0.25299859      -4.20359980
H       -4.63185118       2.77010008      -2.08217643
H       -1.87852489       3.36691611      -2.11197336
