19
Properties=species:S:1:pos:R:3 Energy:=T 100.3177931=T pbc="F F F"
O        0.17521871       4.47201350      -0.21663442
C       -0.26303884       3.16759512      -0.53429198
C       -1.80006152       3.07194896      -0.65530076
O       -2.21075876       1.74735119      -0.95544585
C       -1.84045487       0.80179837       0.04346681
C       -0.30711635       0.72879621       0.20614583
C        0.25654490       2.14645084       0.49397212
C        0.09116024      -0.26913070       1.21601466
C        0.41771618      -1.08267953       2.04086083
H       -0.15607740       4.71391573       0.65872045
H        0.17567640       2.94359114      -1.51600875
H       -2.25936814       3.40679122       0.28978284
H       -2.17155194       3.70172658      -1.47361411
H       -2.32688674       1.03730851       1.01130781
H       -2.21110781      -0.17527942      -0.29923133
H        0.08696132       0.39872072      -0.76391960
H       -0.03683404       2.45637139       1.51143241
H        1.35638269       2.12752461       0.46955262
H        0.65536592      -1.78612434       2.80361032
