19
Properties=species:S:1:pos:R:3 Energy:=T 696.9356460=T pbc="F F F"
O       -0.32156560       1.45308317      -0.04291949
C       -0.00562304       0.08364890      -0.03159767
C        0.25643181      -0.62721597      -1.40395042
C       -0.69801274      -1.80300712      -1.00621363
C       -1.97855863      -2.20635543      -1.75353676
C       -3.12934696      -1.89224723      -0.73418996
O       -4.34222668      -1.43707820      -1.32143090
C       -2.51776521      -0.88762928       0.22438930
C       -1.19720039      -0.86100464       0.07140881
H        0.46651634       1.95072764       0.20267577
H        0.72602898      -0.13299930       0.75322001
H       -0.22690861       0.01668795      -2.13699950
H        1.28398233      -0.89423743      -1.64638718
H       -0.13478291      -2.66760782      -0.63635767
H       -2.13307210      -1.56946309      -2.63315374
H       -2.00456966      -3.24210253      -2.09000897
H       -3.43396087      -2.79541546      -0.19479941
H       -4.16692501      -0.65132730      -1.85233197
H       -3.12651099      -0.33910732       0.93430376
