19
Properties=species:S:1:pos:R:3 Energy:=T 2122.6649972=T pbc="F F F"
O        0.42077865      -0.26057613       0.59611061
C       -0.73239006       0.51379674       0.34428342
C       -2.02736547      -0.28833390       0.38798202
C       -2.06416799      -0.86397141       1.75751366
C       -2.54259329       0.53020180       1.56956802
C       -1.24389502       1.30089365       1.55085643
C       -1.04183540       2.81444583       1.59260354
C       -0.05856202       2.46346136       2.74091314
O       -0.41376758       1.09178869       2.69303360
H        1.04563001       0.33069667       1.04865351
H       -0.59908590       1.14218414      -0.54271536
H       -2.58379856      -0.55757955      -0.49725347
H       -2.66244562      -1.72248096       2.03551606
H       -1.07824607      -0.74710443       2.15079270
H       -3.50245574       0.92143838       1.86229913
H       -0.60784330       3.25404343       0.68775296
H       -1.94484045       3.34591388       1.89790583
H        1.00649806       2.62027301       2.51517485
H       -0.29302448       2.91929923       3.70698831
