19
Properties=species:S:1:pos:R:3 Energy:=T 111.6995392=T pbc="F F F"
C        1.23729729       0.42758568      -1.27618172
C       -0.00169525      -0.10213285      -0.62123932
C        0.00930226      -1.31073481      -0.07846291
C       -1.32253481      -1.91763874       0.30116829
O       -2.06034258      -2.34543953      -0.85166121
C       -2.11794327      -0.84785061       1.06328307
C       -2.45666910       0.24665358       0.06949024
O       -3.56421092       0.71518012      -0.07535614
C       -1.24290265       0.77268761      -0.68585720
H        1.63598377       1.29049840      -0.73151535
H        2.00838272      -0.34666602      -1.30231441
H        1.03828170       0.75519459      -2.30340349
H        0.92089592      -1.90049677      -0.07038534
H       -1.14410638      -2.81089545       0.91271702
H       -2.63285400      -1.61187909      -1.12520533
H       -3.04446360      -1.20465827       1.50407145
H       -1.52375906      -0.38690886       1.84847718
H       -1.57318667       0.88520360      -1.72490437
H       -1.02590190       1.77410159      -0.30844000
