19
Properties=species:S:1:pos:R:3 Energy:=T 282.8805727=T pbc="F F F"
O       -0.67298784       0.23227417       0.13055986
C       -1.76449812      -0.64279450      -0.09607536
C       -2.50066890      -1.16537399       1.15610887
C       -3.31926155      -2.27922170       0.46662069
C       -4.44828357      -1.59942464      -0.34178860
O       -3.94564273      -0.66591378      -1.29182844
C       -2.80611593       0.10445269      -0.94075485
C       -2.28904465      -2.87252720      -0.47972629
C       -1.41780725      -1.92239460      -0.82563049
H        0.07950715      -0.27197483       0.48057245
H       -1.80022671      -1.58937803       1.88490010
H       -3.10293030      -0.39037371       1.63708091
H       -3.74666821      -3.02044461       1.15040811
H       -5.00131171      -2.34380507      -0.93012462
H       -5.16855473      -1.10943920       0.33343989
H       -2.35148554       0.39809450      -1.89141089
H       -3.09511458       1.01458244      -0.40248843
H       -2.23958556      -3.91398708      -0.77882300
H       -0.57811863      -2.01675107      -1.50582943
