19
Properties=species:S:1:pos:R:3 Energy:=T 2163.2896291=T pbc="F F F"
O       -1.02909656       0.47516530       3.18724978
C       -1.49521836       0.11888919       1.93406665
C       -2.58947388       0.93812703       1.31103781
C       -1.25216799       0.89391029       0.62787390
O       -0.52985857       2.06753866       0.50313733
C       -0.91158047      -0.40614441      -0.11223331
C       -2.04783420      -1.22701518      -0.79978405
C       -2.29648611      -2.02016400       0.53720764
C       -1.16304833      -1.20859376       1.24026782
H       -0.92711770      -0.35369343       3.67655108
H       -3.48176489       0.50014221       0.88498508
H       -2.72495739       1.87910156       1.84436979
H       -0.16904690       2.06154477      -0.39500443
H        0.08053339      -0.44526595      -0.57779191
H       -2.88536879      -0.66539387      -1.22600070
H       -1.63056252      -1.86017408      -1.58999451
H       -3.29601747      -1.97541069       0.98158914
H       -2.01127285      -3.07447416       0.45684061
H       -0.33935043      -1.78427073       1.67930058
