19
Properties=species:S:1:pos:R:3 Energy:=T 903.9039266=T pbc="F F F"
C       -0.78935271      -2.50946422      -0.21194915
C       -0.88108174      -1.01373422      -0.01107856
C       -1.55291473      -0.02084675      -1.01529875
C       -0.92383571       1.07061787      -0.10926663
C       -0.85983390       2.52877142      -0.47832828
O       -1.52811615       0.85485629       1.18127843
C       -1.55596579      -0.56820491       1.29945714
C        0.25451137       0.03615635      -0.08080241
O        1.43982305       0.05259904      -0.21872929
H       -0.20057575      -2.98398621       0.58240582
H       -1.78928250      -2.96502246      -0.17756320
H       -0.33542680      -2.75329954      -1.17943642
H       -1.08202077      -0.04642551      -1.99497524
H       -2.64814045      -0.02353695      -1.09949480
H       -0.36657650       3.09527105       0.31337269
H       -0.31492315       2.68544577      -1.41480723
H       -1.86851633       2.94094916      -0.61000069
H       -1.04564055      -0.90138945       2.21588960
H       -2.58967158      -0.94597791       1.35568734
