19
Properties=species:S:1:pos:R:3 Energy:=T 1764.6180368=T pbc="F F F"
O        0.04235871       0.27172716      -0.19588095
C       -1.00504127       0.40912133       0.75904622
C       -2.29024159      -0.27128437       0.25069843
C       -2.99422855       0.82639817      -0.57786749
C       -2.64474574       2.16121851       0.06445458
C       -2.49703453       2.33928743       1.54340921
C       -1.33548758       1.86470815       0.79768134
O       -0.61059407       2.76316035      -0.07806943
C       -1.84992825       3.21881175      -0.70899575
H        0.06400383       1.14146720      -0.64110450
H       -0.65880850       0.02063532       1.71547353
H       -2.05269041      -1.15514456      -0.35003697
H       -2.89820872      -0.62667834       1.08097299
H       -2.48081317       0.87092585      -1.54054691
H       -4.05803714       0.65251813      -0.74406590
H       -2.40871226       3.36318273       1.86650648
H       -2.93904996       1.62568696       2.22297733
H       -2.04347254       4.25628643      -0.42651216
H       -1.80224792       3.08190081      -1.79927996
