19
Properties=species:S:1:pos:R:3 Energy:=T 3059.1768904=T pbc="F F F"
C       -0.06592858      -0.29714111       3.23619166
C       -0.42139369       1.14286372       2.98417079
O       -1.23928011       1.39740910       1.82222501
C        0.10205185       1.90951831       1.83767933
C        0.28822081       3.38469625       1.91553754
C        1.45760814       3.99906430       1.20067556
C        0.09639890       4.21923379       0.58702608
O       -0.80017049       5.14693217       1.16082808
C       -0.88139367       4.30143126       2.32717300
H       -0.95901225      -0.82029825       3.58858929
H        0.29345928      -0.80713696       2.33763807
H        0.69304633      -0.39934357       4.01229478
H       -0.78660794       1.70641225       3.84691855
H        0.77625674       1.40416763       1.14135589
H        2.01543205       4.85378599       1.57691615
H        2.04160324       3.29653017       0.60553820
H       -0.31709076       3.43007505      -0.04421864
H       -0.81033320       4.86638030       3.26113854
H       -1.77283769       3.66141870       2.30066225
