19
Properties=species:S:1:pos:R:3 Energy:=T 773.8832531=T pbc="F F F"
C        1.82933516      -2.99655933       3.31831556
C        0.84910658      -3.19557663       2.13528765
O        1.51136780      -2.95588424       0.91446130
C        2.39205798      -1.83703123       0.99480144
C        1.97055426      -0.80178293       2.05271349
O        0.88935036      -0.02255262       1.55110737
C       -0.26872035      -0.86730533       1.59233589
C        0.05952615      -1.93706582       2.64377656
C        1.40968997      -1.51486247       3.29614998
H        1.43968134      -3.48197133       4.21150521
H        2.88268557      -3.25675098       3.18014177
H        0.29341156      -4.12815150       2.02751175
H        3.39793283      -2.18140145       1.25692431
H        2.40044991      -1.37529710       0.00295761
H        2.78509090      -0.11131729       2.27053547
H       -1.13415029      -0.23519461       1.83368542
H       -0.42780402      -1.33691054       0.61414199
H       -0.72935866      -2.20558816       3.35020168
H        1.43103266      -0.90908694       4.20215541
