19
Properties=species:S:1:pos:R:3 Energy:=T 1896.1001934=T pbc="F F F"
O        0.11085534       0.10123852       0.38790127
C       -1.02790618       0.85877537       0.09926264
C       -1.20938914       2.05475110       1.03586062
C       -2.18401327       3.10306507       0.49028481
C       -3.48698794       2.43107731       0.03796987
C       -3.52351396       1.62542413      -1.23356588
C       -3.57362023       0.91132905       0.08954819
C       -2.33169317       0.30427715       0.70753656
O       -1.96574383       1.11760992       1.88545791
H        0.05913200      -0.06325443       1.34754884
H       -1.02198007       1.08265692      -0.96058681
H       -0.32076876       2.46627380       1.52428347
H       -2.39026869       3.80404266       1.30648089
H       -1.74039882       3.69377261      -0.32334114
H       -4.39098454       2.99954386       0.24165641
H       -4.44095861       1.69185595      -1.80952288
H       -2.63882732       1.57612438      -1.85438329
H       -4.51026919       0.45004818       0.39325516
H       -2.39800365      -0.76419165       0.94018310
