19
Properties=species:S:1:pos:R:3 Energy:=T 626.1418328=T pbc="F F F"
C       -4.16066348      -1.46273462      -1.29306643
C       -2.74774651      -0.89787326      -1.51798975
C       -2.76242416       0.66293162      -1.49253714
C       -2.19117156       0.63104502      -0.02650129
C       -0.81538632       1.28333062       0.14303827
C        0.18886225       0.14226314      -0.09311348
O        1.38125234       0.16703076       0.00757991
O       -0.48192081      -1.01939325      -0.39211428
C       -1.90654405      -0.89335335      -0.22982543
H       -4.65050038      -0.94263667      -0.45932148
H       -4.76704729      -1.31183661      -2.19522092
H       -4.14676787      -2.53578843      -1.06934683
H       -2.23685520      -1.36983072      -2.36050029
H       -2.10588517       1.14575621      -2.21815824
H       -3.76349237       1.08485274      -1.59513808
H       -2.91441745       0.88755525       0.75131173
H       -0.65037547       2.10218063      -0.56847994
H       -0.63181772       1.71199596       1.13336147
H       -2.23847726      -1.63380544       0.50498179
