19
Properties=species:S:1:pos:R:3 Energy:=T 2286.1277006=T pbc="F F F"
C        0.15688758      -0.41017561      -0.31141103
C        1.03004090       0.45855979       0.53617696
O        2.18846023      -0.17447387       1.10967305
C        2.47297619       0.86737812       0.28351932
C        3.12156542       0.87571534      -1.06244620
C        2.99329544       2.28801311      -1.56746034
C        3.03660565       3.13682225      -0.25960164
C        3.14396011       2.08083387       0.80440671
O        3.96783629       0.99515000       0.15795056
H       -0.66562408      -0.84074737       0.27360153
H       -0.30017588       0.15950623      -1.13495824
H        0.74067827      -1.23067478      -0.73596835
H        0.55693942       1.18154509       1.20573910
H        3.33622231       0.00920336      -1.67716840
H        3.80435781       2.54295569      -2.25940916
H        2.04579214       2.42828226      -2.11378821
H        3.88717300       3.83231638      -0.23066920
H        2.12280644       3.73953854      -0.14655041
H        3.43983365       2.24520418       1.83033354
