19
Properties=species:S:1:pos:R:3 Energy:=T 1547.7577629=T pbc="F F F"
O       -2.15921018      -2.09234022      -0.88103091
C       -1.16871186      -1.50817971      -0.49824653
C       -0.99464021      -1.19111420       0.99002461
C       -0.70003273       0.28013435       1.31760708
C        0.73746845       0.65756001       1.01649715
O        0.91742980       1.87229333       0.28347465
C        1.27539431       0.64200379      -0.35177062
C        0.42484717       0.24758940      -1.54362952
C       -0.02531594      -1.21916722      -1.47543584
H       -1.90884289      -1.52189035       1.48734673
H       -0.16773747      -1.81313476       1.37534720
H       -1.37058113       0.93881339       0.75322064
H       -0.89640408       0.48973908       2.37912087
H        1.47151282       0.51211372       1.80647160
H        2.34973493       0.48671360      -0.42736442
H       -0.44541754       0.91202831      -1.60002950
H        1.00548902       0.43474267      -2.45857625
H       -0.35863779      -1.56679155      -2.45552192
H        0.83778520      -1.84220344      -1.18212495
