19
Properties=species:S:1:pos:R:3 Energy:=T 1938.4508909=T pbc="F F F"
C       -0.98147695       2.05507206       1.26155992
C       -0.91399232       1.02605256       0.13572544
C       -2.04563940      -0.05628005      -0.02488001
C       -0.99014833      -1.20088978       0.00883595
C        0.10187551      -0.13768944       0.20559454
O        1.29189752      -0.19383679       0.32706526
C       -2.83421344       0.11898386      -1.30141713
C       -4.15223097       0.75180602      -1.33912262
O       -4.02039283      -0.66627016      -1.47872938
H       -1.04002040       1.58344061       2.25156746
H       -0.08921166       2.68848182       1.24583413
H       -1.86058905       2.70322160       1.12511069
H       -0.75946347       1.55272353      -0.81248097
H       -2.71909023      -0.10000822       0.83784760
H       -1.07004784      -1.90005271       0.84199751
H       -0.86301766      -1.78989314      -0.90240029
H       -2.22427705       0.17672398      -2.20245458
H       -4.54471326       1.10334496      -0.38998255
H       -4.44873813       1.30979965      -2.21990024
