19
Properties=species:S:1:pos:R:3 Energy:=T 278.4713004=T pbc="F F F"
C        0.17190161      -0.02423020      -0.32389691
C        1.59469020      -0.21131005       0.14067662
C        2.20293873      -1.56125222      -0.33262507
C        3.39065591      -1.89035385       0.58235854
O        2.89642016      -1.95417549       1.92872620
C        2.69346739      -0.58654642       2.22579455
O        1.51131321      -0.15347438       1.60002240
C        3.90138048       0.10018382       1.61072852
C        4.31330995      -0.69257742       0.61900578
H       -0.41198158      -0.83632610       0.11627351
H       -0.20718550       0.93723709       0.04108134
H        0.09778510      -0.06190985      -1.41583688
H        2.21891191       0.63222173      -0.19404798
H        1.47195473      -2.37734281      -0.26852747
H        2.55552969      -1.46049212      -1.37268032
H        3.86646704      -2.84722232       0.34806192
H        2.52879268      -0.46255751       3.29467699
H        4.29070499       1.05833856       1.90618358
H        5.15162319      -0.55555038      -0.04099550
