19
Properties=species:S:1:pos:R:3 Energy:=T 86.2550546=T pbc="F F F"
C        1.30674180       0.60613810       0.18771084
C       -0.18419213       0.34086791       0.17304525
C       -1.05193517       1.26181624      -0.28771451
C       -2.52792586       1.01456067      -0.45997907
C       -2.98052122      -0.31296646      -1.11278464
O       -4.09912700      -0.46441091      -1.52503266
O       -2.01027610      -1.25514075      -1.30850365
C       -1.35779563      -1.87331747      -0.17526140
C       -0.70479409      -0.90820623       0.82326418
H        1.66522488       0.73295114       1.21757421
H        1.87079189      -0.22804013      -0.24456659
H        1.55165762       1.51231295      -0.37085318
H       -0.72248618       2.29202214      -0.44412365
H       -3.06943280       1.08758659       0.50389960
H       -2.96524498       1.81457556      -1.06359723
H       -2.11214083      -2.45341950       0.36364020
H       -0.65033173      -2.55341972      -0.65035952
H       -1.45553630      -0.69195432       1.59521858
H        0.11424332      -1.42409572       1.33356361
