19
Properties=species:S:1:pos:R:3 Energy:=T 1405.1298793=T pbc="F F F"
O        1.72320623       4.85358015      -3.31096442
C        1.82564245       3.78940703      -2.41594075
C        2.20346650       3.97159177      -0.97377390
C        1.54247947       2.95487415      -0.04887358
C        1.68534684       1.63519907      -0.83576096
C        3.04877710       1.74406698      -1.55527151
C        3.12214924       3.21890248      -1.92220483
C        1.59065726       0.44368246       0.02391841
O        0.66678228      -0.32741925      -0.03677147
H        2.07634937       5.63056989      -2.85221071
H        1.07555032       3.03408774      -2.59832001
H        2.51676497       4.93992201      -0.57280056
H        2.09179406       2.90920856       0.90124516
H        0.49588328       3.19673637       0.18734502
H        0.87342749       1.56369569      -1.56612626
H        3.86771169       1.51037009      -0.86324225
H        3.13382424       1.07317829      -2.41958794
H        4.07019796       3.64982867      -2.23888794
H        2.43030952       0.27408963       0.73244013
