19
Properties=species:S:1:pos:R:3 Energy:=T 766.0204919=T pbc="F F F"
C        0.09507095       0.23161894       0.26917785
C        1.44257487      -0.27879860      -0.17063482
O        1.92574445      -1.22515357       0.75973143
C        2.94812902      -1.98680369       0.12799626
C        3.18405146      -1.20001787      -1.15511265
O        3.69166194       0.06185903      -0.70413972
C        2.48074571       0.80261384      -0.62173408
C        1.88274391       0.68831100      -2.05870588
C        1.73012741      -0.78993194      -1.60589533
H        0.20632309       0.71462091       1.24516429
H       -0.37387455       0.94748273      -0.41686873
H       -0.59061338      -0.61264621       0.38993569
H        3.82411854      -1.97758571       0.77983789
H        2.62310097      -3.01870342      -0.05525902
H        3.84013676      -1.63451049      -1.90919603
H        2.60988437       1.74960161      -0.09274631
H        0.96266666       1.24166021      -2.26189754
H        2.59666505       0.87941487      -2.86168607
H        1.10861244      -1.53152151      -2.10641763
