19
Properties=species:S:1:pos:R:3 Energy:=T 133.9252600=T pbc="F F F"
C       -0.03759126      -0.17151962       0.00811155
C        1.24296836       0.40870385       0.59811707
O        2.18673001       0.69274331      -0.43502818
C        3.48211197       0.64194494       0.10674460
O        3.38066951       0.06431678       1.37923507
C        2.07900450      -0.53608296       1.48883902
C        1.70116208      -0.64553148       2.95981606
C        2.07362763      -1.82656694       0.78310612
C        2.06840191      -2.87975528       0.20700388
H       -0.70502990      -0.57607613       0.78143586
H       -0.56320954       0.58530891      -0.57999905
H        0.24902689      -1.00010993      -0.63885365
H        1.04002044       1.33914616       1.16096021
H        4.14281758       0.05045967      -0.55145890
H        3.90706636       1.66350596       0.19339061
H        2.35598380      -1.36690294       3.45206983
H        1.84480380       0.33994293       3.41521995
H        0.65545264      -0.95131086       3.10029558
H        1.89571261      -3.85849579      -0.16285597
