19
Properties=species:S:1:pos:R:3 Energy:=T 1962.6744527=T pbc="F F F"
C        0.77473132       1.08716904       0.06214444
C        0.91015892      -0.42290549      -0.12634897
C        1.62928842      -1.22181760       1.02023322
C        2.67746336      -1.78239962       0.06247706
C        4.11571263      -2.13919672       0.30871860
O        2.04423733      -2.39261047      -1.03991166
C        1.95633264      -0.98565365      -1.12698074
C        2.51728873      -0.37924454      -2.36272527
O        1.92036507       0.44658137      -3.00957827
H        0.38966452       1.30178958       1.07154521
H        1.71107367       1.64232393      -0.06620486
H        0.07248360       1.49875357      -0.67199716
H       -0.08857829      -0.82482184      -0.33270621
H        2.04378404      -0.61462089       1.83238621
H        0.99389243      -2.00421082       1.45593905
H        4.25589120      -2.62239965       1.28428242
H        4.49301042      -2.81417748      -0.46675729
H        4.73911504      -1.23409408       0.27560457
H        3.55700360      -0.70786499      -2.59206399
