19
Properties=species:S:1:pos:R:3 Energy:=T 1983.8286122=T pbc="F F F"
C        0.39637107       0.23119670      -0.33959039
C        0.81868183      -0.68789905       0.79435657
O        2.24262583      -0.58650419       0.99044979
C        2.48032654      -1.86516260       0.34431412
C        3.22792309      -2.75493947       1.33392767
C        2.12172544      -3.54943654       1.99961546
O        1.47849134      -4.42900247       1.06479543
C        0.81123848      -3.22110292       1.45326135
C        0.95725496      -2.16738234       0.38360493
H        0.32087524       1.27260558      -0.00910017
H        1.16236905       0.15756402      -1.11780410
H       -0.57305374      -0.08538357      -0.74715617
H        0.26788162      -0.51523813       1.72513482
H        2.95490220      -1.73826420      -0.63160256
H        3.94892028      -3.41902247       0.85084234
H        3.74295883      -2.10136787       2.03843540
H        2.26036575      -3.95197243       2.99937439
H       -0.12823244      -3.36674062       1.98460559
H        0.46025331      -2.41163726      -0.55640340
