19
Properties=species:S:1:pos:R:3 Energy:=T 517.8031645=T pbc="F F F"
O        0.48116368       0.03343650       1.34456332
C       -0.24047282       0.07082865       0.36686321
C       -0.76467535       1.39262914      -0.19083066
C       -1.71209535       1.24525886      -1.39593264
C       -2.75431774       0.12878298      -1.22488846
C       -2.09454182      -1.23515743      -0.97132462
O       -2.67598642      -1.93278662       0.16762935
C       -1.38943804      -2.15406774       0.77052584
C       -0.70575588      -1.23640092      -0.27280789
H       -1.27868338       1.90394552       0.63947507
H        0.08655462       2.04033357      -0.43895513
H       -2.21433101       2.20659649      -1.54788208
H       -1.11861083       1.03527574      -2.29410874
H       -3.39886048       0.33643148      -0.36131812
H       -3.41893980       0.07547105      -2.09901778
H       -2.12197748      -1.88447118      -1.85492413
H       -1.35363172      -1.79583341       1.80635014
H       -1.10072858      -3.21607102       0.72745195
H        0.11543954      -1.69176154      -0.83352813
