19
Properties=species:S:1:pos:R:3 Energy:=T 1625.6573650=T pbc="F F F"
C       -0.45736735       0.49900811      -0.95952814
C        0.96391727       0.18754581      -0.48580151
C        0.90752718      -0.50802027       0.87655860
O        1.60077988      -0.69630426      -1.47232535
C        2.59483212       0.25655791      -1.80305525
C        3.47030286       0.61915742      -0.64575864
C        2.10103565       1.27237797      -0.75211788
C        1.98353210       2.73376843      -0.61944746
O        1.00737997       3.23197852      -0.10023712
H       -0.98156409       1.16861631      -0.27086855
H       -0.46635952       0.94444089      -1.95792676
H       -1.00725453      -0.44855252      -1.01240540
H        0.37492908      -1.45325034       0.74449921
H        1.90412191      -0.72686697       1.27096600
H        0.36780703       0.08628650       1.61684127
H        2.89058260       0.35193859      -2.84250933
H        3.62835066      -0.12529232       0.13125814
H        4.32538099       1.23636837      -0.91086976
H        2.85641419       3.34953183      -0.96697050
