19
Properties=species:S:1:pos:R:3 Energy:=T 2945.8548421=T pbc="F F F"
C       -0.05578377      -0.35486690       0.41336242
C        1.40545168      -0.04231688       0.18414898
C        2.54178095      -1.08861121       0.02872237
C        3.21809269       0.32775849      -0.06584069
O        4.53894139       0.69991190      -0.27014584
C        2.33673233       0.75278386       1.14065850
C        2.08261470       0.78406287      -0.96028593
C        2.09544321       1.99700498      -1.73087754
O        1.57263699       0.78315129      -2.27739904
H       -0.14449299      -0.95969910       1.32237492
H       -0.61036654       0.57654215       0.54336667
H       -0.48436985      -0.92100935      -0.41646305
H        2.78728062      -1.61483183       0.95380718
H        2.53472599      -1.74650388      -0.84147268
H        5.09043444      -0.07376875      -0.11173824
H        2.53642416       0.20309059       2.06606214
H        2.13837551       1.81615631       1.30785346
H        1.36281558       2.78226941      -1.55179353
H        3.01134354       2.34035522      -2.21983146
