19
Properties=species:S:1:pos:R:3 Energy:=T 2653.3959659=T pbc="F F F"
C       -0.08312160      -0.10819572       0.01481984
C        1.40540143      -0.09591770       0.05675742
C        2.23471992       0.13704357       1.29222091
C        2.24600002       1.14189428       0.14258547
O        1.67050710       2.37690767       0.37724449
C        3.26709621       1.04338812      -0.96074622
C        4.32502166      -0.03337883      -0.76704154
C        3.08280539      -0.32833121      -1.55307651
O        1.96195278      -0.95869978      -0.93820207
H       -0.55447524       0.58540157       0.71451787
H       -0.37376363       0.14004952      -1.00739579
H       -0.43824627      -1.11993986       0.23134297
H        1.71177327       0.45930691       2.19096947
H        3.05014523      -0.54270562       1.47296347
H        2.40241379       3.00650739       0.44615456
H        3.42765105       1.89354495      -1.62625210
H        5.22610912       0.11669265      -1.34923152
H        4.49465048      -0.54415635       0.16607053
H        3.16123954      -0.60139118      -2.59941132
