19
Properties=species:S:1:pos:R:3 Energy:=T 1060.0648153=T pbc="F F F"
C        0.18445425       0.88319696       3.51864923
O       -0.27038094      -0.34749429       2.93103136
C       -0.04500100       0.14357428       1.58703232
C        0.55203867       1.46710466       2.13953774
C       -0.25346239       2.63875623       1.58152154
C       -1.55408933       2.03758653       1.05369963
C       -2.67817027       1.65407283       2.03630046
O       -2.50934012       0.25633404       1.73587603
C       -1.36308109       0.50668946       0.88646813
H       -0.60806258       1.40266052       4.06475134
H        1.02491425       0.71345515       4.19794335
H        0.60105823      -0.53328089       1.02018712
H        1.62692741       1.59070524       2.01229708
H       -0.39596334       3.45480319       2.29726230
H        0.29251236       3.08247000       0.74716192
H       -1.94026678       2.55601124       0.17753664
H       -2.48789785       1.88111926       3.08950884
H       -3.68173034       2.00377415       1.77357659
H       -1.49639924       0.05152146      -0.09947077
