19
Properties=species:S:1:pos:R:3 Energy:=T 1855.4328251=T pbc="F F F"
O        1.82169057       2.38074131      -0.78147293
C        2.41315253       1.11753489      -0.78517665
C        3.73591144       0.97542178      -1.51581992
C        2.47243829       0.47207098      -2.13581934
C        2.18793462      -0.96048672      -2.61018591
C        1.85587778      -0.38189066      -4.02560170
C        1.88769063       1.05938166      -3.42486668
C        2.16981102       0.48690599       0.53058632
O        1.56733922       1.11755714       1.39025149
H        1.38808055       2.43031042       0.10181709
H        4.17090419       1.91850468      -1.84023866
H        4.46118959       0.25766126      -1.14975255
H        3.02588319      -1.66683227      -2.55221000
H        1.32982388      -1.41143256      -2.10125752
H        2.66555428      -0.56478596      -4.74124944
H        0.92307150      -0.72725890      -4.47570076
H        2.52209991       1.80441776      -3.92075952
H        0.90456483       1.51830505      -3.26870903
H        2.47535205      -0.55184526       0.72020556
