19
Properties=species:S:1:pos:R:3 Energy:=T 3470.1475094=T pbc="F F F"
C        2.71779496       1.51529167      -0.45083230
C        2.08041801       0.14975922      -0.23467671
C        2.53323201      -1.04433957      -1.11958573
C        2.48003174      -1.94828631       0.12154519
C        3.03269739      -3.27006344       0.32695118
O        1.61227352      -3.07980559       0.26540135
C        2.34009449      -0.71347110       1.02130666
C        1.79271610      -0.55597965       2.33979698
O        3.20185861      -0.39121661       2.11246561
H        2.36359369       2.23093513       0.29565481
H        3.80917980       1.51945699      -0.41644945
H        2.41977056       1.88861920      -1.43772385
H        0.99581213       0.29151541      -0.32233696
H        1.86013889      -1.30147070      -1.94017253
H        3.54958383      -0.95906177      -1.51343218
H        3.49500000      -3.80543457      -0.50843946
H        3.42354500      -3.56432969       1.29997584
H        1.25505955       0.36283598       2.58484207
H        1.50342981      -1.41548425       2.94585975
