19
Properties=species:S:1:pos:R:3 Energy:=T 200.4403200=T pbc="F F F"
C        0.90359550       1.86536407      -1.12497591
C        1.82824380       0.95177673      -0.28059075
O        1.00444449       0.40678404       0.74170155
C       -0.30028089       0.27455142       0.20169478
C       -0.51750414       1.57799685      -0.57058194
O       -1.20232727       0.04276983       1.25154003
C       -1.44288392      -1.34877673       1.41822841
C       -0.99809076      -1.93255875       0.10863514
C       -0.37400676      -1.00562712      -0.61414833
H        1.14563654       2.92895926      -1.00422358
H        0.97674910       1.64039870      -2.19959446
H        2.23495490       0.14091348      -0.90584283
H        2.65384427       1.45821602       0.22353669
H       -1.27804428       1.48334011      -1.35673638
H       -0.86008554       2.38666166       0.09244770
H       -0.89085832      -1.72445000       2.28909781
H       -2.50713071      -1.49213974       1.63858289
H       -1.15639189      -2.95688756      -0.18867121
H        0.14623561      -1.13983303      -1.55402091
