19
Properties=species:S:1:pos:R:3 Energy:=T 111.1994867=T pbc="F F F"
C       -0.63473891      -1.43248048      -4.18057500
C        0.19353889      -1.55630703      -2.92058697
O        0.32720568      -2.60109984      -2.33202384
C        0.91787350      -0.28510282      -2.45287712
C        0.05687283       0.99455708      -2.49251768
O       -0.03585133       1.51978061      -3.80047758
C        1.21353446       1.90047154      -4.34452468
C        2.34805601       0.96814115      -4.01591107
C        2.18657631      -0.10217140      -3.25968452
H       -1.31792353      -0.58321421      -4.08579798
H        0.02412086      -1.20784769      -5.01833693
H       -1.18076478      -2.36131178      -4.34061513
H        1.15021342      -0.47082477      -1.39915589
H       -0.96400162       0.78197371      -2.17801023
H        0.46159967       1.73313494      -1.78801473
H        1.07063604       1.96065186      -5.42633790
H        1.48884673       2.90920286      -3.99468736
H        3.30761829       1.21578527      -4.45478037
H        2.97671977      -0.83966705      -3.15039608
