19
Properties=species:S:1:pos:R:3 Energy:=T 1413.8717058=T pbc="F F F"
O        0.36220878       0.47545852       0.77617076
C       -0.91888693       0.80820853       0.27831537
C       -2.00271157      -0.31976288       0.25589217
C       -2.24991829       0.09574210      -1.18984691
O       -2.81411936      -0.67709652      -2.24425770
C       -3.48031744       0.49212924      -2.78595903
C       -3.03674935       1.39436457      -1.62589197
C       -1.70381564       2.14245522      -1.83853857
C       -0.92892501       0.93253782      -1.27718541
H        0.27066370      -0.18798691       1.46867929
H       -1.28659628       1.72272935       0.76455793
H       -1.57071500      -1.32838092       0.33350945
H       -2.83611579      -0.23560036       0.96315964
H       -3.04890400       0.75293050      -3.76217686
H       -4.56164541       0.32279241      -2.87382071
H       -3.78417768       1.90259429      -1.01566847
H       -1.46107824       2.36627959      -2.87906468
H       -1.60606553       3.06051981      -1.25660140
H        0.01965900       0.66276527      -1.74941283
