19
Properties=species:S:1:pos:R:3 Energy:=T 1285.7749443=T pbc="F F F"
C       -2.30932511       3.02606405       2.21441442
C       -0.82411139       2.76100651       1.92408837
C       -0.52180353       3.56418694       0.67277301
O        0.53349010       4.01378424       0.30769667
C       -0.59496745       1.32145057       1.50319640
C        0.80204080       0.80264600       1.33158558
C       -0.08042861       0.21801777       2.41869869
C       -0.42357577      -1.19621365       2.14286700
O       -0.56726249      -2.08042035       2.95033139
H       -2.70657990       2.31265913       2.94329629
H       -2.41846259       4.04797742       2.57324150
H       -2.87116905       2.94492691       1.27331896
H       -0.18493769       3.05152004       2.76167765
H       -1.39284841       3.54653504      -0.01777122
H       -1.31357984       1.00924536       0.74574971
H        0.97911592       0.21195962       0.43383382
H        1.65866141       1.36974568       1.67991259
H        0.16955684       0.48803775       3.43801069
H       -0.49892292      -1.40932962       1.04799805
