19
Properties=species:S:1:pos:R:3 Energy:=T 156.4092162=T pbc="F F F"
C       -1.86106971       0.91878462      -5.91477640
C       -1.88310960       2.26722795      -5.16376462
C       -1.50288283       2.05152645      -3.76707985
C       -1.10793470       1.42706803      -2.81372560
C       -0.48225254       1.05481584      -1.54709166
O       -0.16524493      -0.31798961      -1.50869640
C        1.23152911      -0.48485697      -1.69081003
C        1.81081862       0.95022343      -1.67037099
O        0.71002065       1.78127263      -1.34137956
H       -2.35728802       0.16315332      -5.30371269
H       -2.36738096       0.96154501      -6.89553609
H       -0.83211752       0.58296214      -6.08547873
H       -1.18339858       2.98151308      -5.60689001
H       -2.87263093       2.73496332      -5.17965085
H       -1.17649891       1.26258600      -0.72196374
H        1.61521331      -1.09083704      -0.85561711
H        1.43316878      -1.03935095      -2.62036228
H        2.57515896       1.07551373      -0.88865943
H        2.26741896       1.25804857      -2.62467419
