19
Properties=species:S:1:pos:R:3 Energy:=T 603.1940747=T pbc="F F F"
C       -1.80140017      -1.43763787      -1.00173170
C       -2.13840580      -0.95605903       0.40957538
O       -3.43258380      -0.31302217       0.40683003
C       -2.04494882      -1.95809927       1.57702458
C       -1.11531794      -0.97281163       2.32575270
C       -1.16541056       0.07564816       1.17766559
O       -1.73491193       1.33701947       1.58110173
C        0.11867470       0.23933141       0.53981154
C        1.25889934       0.18543538       0.15271107
H       -2.68180653      -1.96550613      -1.38741771
H       -1.62460663      -0.55283321      -1.62429082
H       -0.91418374      -2.07960384      -1.05957665
H       -3.23157314       0.67312632       0.41503111
H       -3.01088564      -2.11577406       2.05529308
H       -1.60613336      -2.93047521       1.31406930
H       -1.49945932      -0.56392744       3.25512450
H       -0.11251437      -1.36396994       2.46621564
H       -2.59253811       1.60797117       1.10374932
H        2.23526537       0.22948611      -0.26194607
