19
Properties=species:S:1:pos:R:3 Energy:=T 669.8198925=T pbc="F F F"
O        0.76886081      -0.00667410      -0.80159195
C        0.01040623      -0.08074361       0.12991028
C       -0.78461848       1.07426736       0.67280460
C       -1.87678098       1.68139926      -0.24445220
C       -1.54939407       3.04179746       0.42055998
C       -0.11859347       2.47829615       0.62002559
C       -2.23481677       3.05691207       1.78918959
C       -1.94055188       1.78894568       2.63095703
O       -1.27170692       0.72500296       1.94653506
H       -0.13409624      -1.02823989       0.68256084
H       -1.48328681       1.67781407      -1.25637633
H       -2.90289666       1.31121026      -0.21663007
H       -1.69671017       3.96904166      -0.14781650
H        0.43127655       2.52096854      -0.31902499
H        0.48334464       2.84342202       1.45621134
H       -1.89620280       3.92420730       2.36064878
H       -3.31382747       3.16182911       1.65759804
H       -1.32809283       2.06325539       3.49042750
H       -2.86835421       1.36644916       3.01999369
