19
Properties=species:S:1:pos:R:3 Energy:=T 2025.0672852=T pbc="F F F"
C        2.72783197      -1.12027799       1.46964357
C        2.01207297      -0.29603124       0.38570023
C        2.24959412      -0.88202826      -0.99113713
O        1.87122326      -0.01061319      -2.04087760
C        3.25270704      -0.30898097      -1.89373112
C        4.21532118      -0.90664211      -2.92485763
C        5.27026910       0.16738285      -2.50415999
C        4.28371580       0.70580131      -1.46234555
O        4.30683902       1.57228330      -0.63232817
H        2.27610182      -2.11610965       1.54474725
H        3.77642810      -1.25715450       1.18834852
H        2.69235765      -0.64280169       2.45401942
H        0.94017520      -0.18544675       0.58239093
H        2.40902908       0.73169765       0.32465665
H        1.94053278      -1.91451310      -1.15982118
H        4.49594412      -1.94128625      -2.71397316
H        3.86387535      -0.84196221      -3.95686658
H        6.21127622      -0.18650904      -2.07904429
H        5.48643559       0.91488166      -3.27023382
