19
Properties=species:S:1:pos:R:3 Energy:=T 166.0156650=T pbc="F F F"
C        0.70093447      -0.50648940      -0.77611810
C        1.14042581       0.18055289       0.53197785
C        1.80525571       1.49331536       0.25839623
C        3.11973773       1.81453241       0.56421651
C        4.15063070       1.04208373       1.30387935
O        3.67405878       0.67784203       2.60131471
O        3.39288810       3.07364295       0.14535260
C        2.24933116       3.55147406      -0.43253034
C        1.25339048       2.62154203      -0.39208997
H        0.19121409      -1.46251645      -0.59972686
H        0.03911680       0.13939617      -1.35974363
H        1.59690513      -0.70710216      -1.36684012
H        0.28327274       0.32266337       1.19739918
H        1.84817434      -0.47201679       1.04119837
H        4.34040854       0.08527645       0.80507218
H        5.08664791       1.62796225       1.34342150
H        3.89623613       1.39702217       3.21235668
H        2.32457095       4.56444759      -0.80072119
H        0.24932003       2.71186132      -0.78750468
