19
Properties=species:S:1:pos:R:3 Energy:=T 45.1294818=T pbc="F F F"
C       -1.54475001       2.61161674      -1.91316589
C       -0.92457007       1.98622145      -0.66361777
C       -1.89775801       1.81642169       0.52081589
C       -2.75824466       3.03514333       0.96198544
C       -3.69895966       2.66056616       2.03518990
C       -4.22272429       1.95459040       2.86299679
O       -0.48833094       0.66155806      -1.10888211
C       -0.14266847      -0.14027527      -0.10117580
O        0.57352594       0.16836829       0.81643084
H       -2.48162004       2.08070729      -2.12936696
H       -1.75588897       3.68064632      -1.79376521
H       -0.84161440       2.43078782      -2.73283578
H       -0.01970148       2.52369095      -0.33898015
H       -2.57994446       1.00243302       0.22951175
H       -1.35745146       1.49472115       1.41970713
H       -2.12376112       3.85660569       1.31817672
H       -3.34680657       3.45973428       0.13988401
H       -4.70930266       1.35815844       3.60163848
H       -0.47189950      -1.18625692      -0.23762327
