19
Properties=species:S:1:pos:R:3 Energy:=T 1545.4275590=T pbc="F F F"
C        3.05316109      -0.52077511      -1.21833035
C        2.62568011      -0.00540930       0.14132362
C        1.24099866      -0.40595811       0.79638326
C        0.50523458       0.50879573      -0.20979467
C        1.76590479       1.24512731       0.31127536
O        1.88991269       2.62843487       0.24797682
C        0.96712396       3.07991074       1.24360430
O        0.54842186       1.97514311       2.07123778
C        1.38551877       0.85588983       1.71937065
H        3.39537090      -1.55044932      -1.09173188
H        2.23505760      -0.51674255      -1.94645810
H        3.89006830       0.05833220      -1.61559945
H        3.48006754      -0.03137082       0.82541037
H        0.95500738      -1.41068294       1.09704508
H        0.37715742       0.20856375      -1.24893982
H       -0.37187189       0.98999247       0.19409864
H        1.48056459       3.82783424       1.84946369
H        0.08271785       3.49595947       0.75325063
H        2.17592317       0.72930490       2.46547414
