19
Properties=species:S:1:pos:R:3 Energy:=T 994.4304025=T pbc="F F F"
O       -0.81988479       0.70606241      -1.22061150
C        0.29781855       1.27334622      -0.55020099
C       -0.05360859       1.92726751       0.78024929
C        1.11995462       2.46717070       1.65632153
C        0.68694434       1.53620760       2.82247461
C       -0.48318108       0.96890759       1.92634288
C       -1.51967221       1.60500574       2.86890143
C       -0.37526477       2.19497423       3.71290134
O       -0.33745469       2.88027775       4.69344197
H       -1.31851689       0.19288341      -0.58004678
H        1.07688616       0.51079693      -0.38147480
H        0.71682467       2.02255927      -1.23683451
H       -0.82212306       2.68542722       0.60070890
H        2.12173759       2.21712072       1.28999976
H        1.09827451       3.54264836       1.86875217
H        1.45504324       0.92061844       3.29335990
H       -0.54531945      -0.10343771       1.72257942
H       -2.16173831       2.37068820       2.42116667
H       -2.15774967       0.90025576       3.40768919
