19
Properties=species:S:1:pos:R:3 Energy:=T 73.7520402=T pbc="F F F"
C        2.80600362      -2.67672464       0.58408365
C        2.97863963      -1.59734743      -0.49589104
C        2.62921980      -0.18696256       0.00020215
C        1.19351063      -0.04074728       0.30371129
C        0.30273077       0.77301789       0.35666200
C        2.99451126       1.04266846      -0.87510528
O        2.50732516       2.23112045      -0.25913054
C        4.48733010       1.22212764      -0.99982810
O        5.25131444       0.29374082      -1.07997838
H        3.52145008      -2.50489237       1.40242369
H        1.79939887      -2.68302400       1.02592524
H        2.99000528      -3.67537113       0.16739100
H        4.03656281      -1.58722590      -0.76672383
H        2.41023081      -1.84683554      -1.39669565
H        3.17187272      -0.08497698       0.94801896
H       -0.69049393       1.09805015       0.56539027
H        2.59374506       0.91936724      -1.89502371
H        1.65684182       2.45957491      -0.64407230
H        4.82273011       2.26703900      -1.07170949
