19
Properties=species:S:1:pos:R:3 Energy:=T 2016.8765875=T pbc="F F F"
C       -1.26900320       2.17807735      -2.10469095
C       -0.55607923       1.00340255      -2.77824750
O        0.73769039       1.38697647      -3.25634132
C        0.61988809       1.15980526      -1.86627071
C        1.49305837       0.10387376      -1.24958457
O        1.19044284      -0.07511111       0.12156827
C       -0.09636214       0.38690032       0.54170595
C       -0.25443288       1.90263392       0.34369648
C       -0.04013378       2.30741445      -1.11549201
H       -1.34621948       3.04646445      -2.76146897
H       -2.24858280       1.95734630      -1.66531557
H       -0.99570360       0.15429063      -3.29094475
H        1.32645071      -0.83479919      -1.79600797
H        2.56008978       0.33712825      -1.32204945
H       -0.89129640      -0.13613423      -0.00710955
H       -0.15552682       0.11644337       1.59842480
H       -1.25980283       2.21345034       0.65005074
H        0.45135572       2.44063561       0.98329827
H        0.43963726       3.28594254      -1.19523140
