19
Properties=species:S:1:pos:R:3 Energy:=T 1806.4442653=T pbc="F F F"
O        2.73217001       0.97467681      -1.29836658
C        1.91517185       2.11120422      -1.55547992
C        0.46541546       1.66108388      -1.69356395
O        0.00713213       1.17144858      -0.44352907
C        0.07521261       2.10481464       0.61255670
C       -0.41620613       3.53556153       0.26005816
C        1.04363357       4.00877321       0.18214761
C        1.47484886       2.71290462       0.88770030
C        2.10171529       3.10292598      -0.41573586
H        2.25623277       0.48651621      -0.60461972
H        2.26971845       2.56879605      -2.48406482
H       -0.14301018       2.49825755      -2.05448927
H        0.35717923       0.82595428      -2.39811716
H       -0.39894828       1.60691115       1.46483093
H       -1.04356399       3.67884086      -0.62257190
H       -0.90445459       4.01615646       1.11491692
H        1.32438693       5.04552077       0.34973768
H        2.06681508       2.55279305       1.78701489
H        3.11717105       3.49648003      -0.35514483
