19
Properties=species:S:1:pos:R:3 Energy:=T 1382.2970644=T pbc="F F F"
C        0.01886370      -0.09382499      -0.05119137
C        1.54400869       0.01130956       0.07859657
O        1.88994541       1.38841810       0.28158310
C        2.12984866      -0.95502083       1.11994618
C        2.78734124      -1.97414751       0.55458447
C        3.00085631      -1.72235467      -0.89897861
O        3.07000338      -2.78169876      -1.79147576
C        3.73563552      -0.46657275      -1.31440509
C        2.22436278      -0.46354098      -1.20442611
H       -0.45106659       0.33578588       0.83837621
H       -0.30171735       0.49659366      -0.91893055
H       -0.34010451      -1.12610598      -0.17318363
H        1.91037097       1.57673592       1.23003514
H        1.93812987      -0.85378356       2.18492295
H        3.08181700      -2.88559048       1.06273691
H        2.45769666      -3.46137028      -1.47675757
H        4.31164981       0.18314090      -0.67122115
H        4.12396594      -0.61299346      -2.31432806
H        1.67913390      -0.33070991      -2.12825325
