19
Properties=species:S:1:pos:R:3 Energy:=T 2005.5310098=T pbc="F F F"
C        0.20360924       2.82118311      -1.17506220
C       -1.09741709       2.39524270      -0.50891146
C       -2.38058297       2.75796241      -1.25173023
C       -1.05412877       2.34202670       0.99912707
C       -1.01271194       1.03905392       0.27083978
C       -1.95669770      -0.14241653       0.15631871
O       -0.82832659      -1.05215130       0.20547939
C        0.06532735      -0.02526131       0.33107033
O        1.25674064      -0.09721107       0.39807981
H        1.03625002       2.32734054      -0.66717518
H        0.23075285       2.53657063      -2.23308027
H        0.37086332       3.90437082      -1.11498012
H       -3.28771244       2.33965354      -0.79875916
H       -2.51870778       3.84235435      -1.32251948
H       -2.35760268       2.39443217      -2.28459375
H       -0.11701298       2.65532720       1.44971592
H       -1.91390688       2.57885056       1.62350486
H       -2.64887479      -0.32355007       0.97957676
H       -2.47527125      -0.23160821      -0.79943064
