19
Properties=species:S:1:pos:R:3 Energy:=T 1622.2156300=T pbc="F F F"
C        1.40215294       0.69317858      -0.40016123
C        0.05318905       0.13995466      -0.06907948
C       -0.25802583      -1.15181107       0.11240579
C       -1.64403797      -1.28571548       0.56748618
C       -2.39541701      -2.50181126       0.26024392
O       -2.00617832      -2.24182044       1.60260930
C       -2.27975681       0.10525558       0.64788648
C       -1.21088233       0.99334926      -0.01921539
O       -1.59043446       1.45907299      -1.32125704
H        1.71711985       1.45775712       0.32071960
H        2.16209126      -0.09316922      -0.43103025
H        1.42261271       1.19246151      -1.37773100
H        0.36846677      -1.99771009      -0.14858168
H       -3.46274608      -2.41133338       0.04803019
H       -1.89093270      -3.34099644      -0.22023894
H       -3.23181993       0.20742797       0.11276581
H       -2.48620631       0.35357106       1.69498888
H       -1.04882094       1.92144723       0.53958088
H       -2.01466287       0.73860137      -1.81272166
