19
Properties=species:S:1:pos:R:3 Energy:=T 1369.7243479=T pbc="F F F"
C        0.68939347      -0.89222428       0.19600224
C        0.85937106       0.45698653       0.83510117
O        1.59901478       1.19397349      -0.50256184
C        2.05504509       2.77116849      -0.54502588
C        3.27275308       2.70067786       0.22018134
O        3.42137101       1.24833177       0.47481996
C        3.31487708       2.85453935      -1.26032668
C        3.74456396       4.07959035      -2.01029043
C        3.92920874       5.04938797      -2.69479315
H        0.13104088      -1.67289068       0.76614961
H        0.21840600      -0.84278508      -0.80114547
H        1.70395029      -1.29177485       0.10202315
H        0.05368294       1.11688770       1.17234297
H        1.68756382       0.45499175       1.54686196
H        1.20089880       3.38680828      -0.69544639
H        3.61615491       3.32065739       1.04052996
H        2.64439943       0.84755526      -0.27245857
H        3.68862418       1.96060638      -1.73300065
H        3.96902977       5.91815220      -3.30996388
