19
Properties=species:S:1:pos:R:3 Energy:=T 2183.0505487=T pbc="F F F"
C        0.64119610      -0.29375537      -0.70593691
C        0.95546600       0.18550342       0.70389050
C        1.83380720       1.42987378       0.74445154
C        3.08088503       0.60896114       0.99699480
C        2.46481708       1.44686624       2.11976339
O        2.88984114       2.59040494       2.76307387
C        2.07357803       0.16533966       2.84225537
C        2.09876903      -0.51750126       1.46042715
O        2.24871183      -1.85998637       1.23931567
H        0.13935617      -1.27216864      -0.68571236
H       -0.04155486       0.42910192      -1.17044899
H        1.53102103      -0.37117618      -1.34187949
H        0.02593071       0.26116570       1.28428952
H        1.69310688       2.34450332       0.16492075
H        4.04898409       0.57592004       0.51742430
H        2.63488808       3.36153138       2.19437816
H        2.93562140      -0.16782982       3.42500594
H        1.16855135       0.11480425       3.45357998
H        2.82794094      -2.26449822       1.91100529
