19
Properties=species:S:1:pos:R:3 Energy:=T 1730.7176138=T pbc="F F F"
O        1.91799599      -1.63532679       2.47139558
C        1.01007169      -0.92062958       1.64210920
C        0.92273893      -1.62131159       0.27622291
C        0.00240180      -0.88248607      -0.71988088
C        0.07269930       0.63845375      -0.59584992
O       -0.75839538       1.07630082       0.52445680
C        0.39402927       1.57023451       1.20577609
C        1.32834266       1.18491649       0.10465521
C        1.45930072       0.52759293       1.46144044
H        1.85497568      -1.25277705       3.35872057
H        0.01910207      -0.90115490       2.11667695
H        1.93831914      -1.63175660      -0.14500728
H        0.60029416      -2.66432220       0.37899076
H        0.27026191      -1.20513583      -1.72731005
H       -1.04748254      -1.13501855      -0.54957331
H       -0.22489259       1.14959592      -1.51548030
H        0.22821417       2.40999749       1.87368935
H        2.20144712       1.56467101      -0.40255441
H        2.28897603       0.84506639       2.08983220
