19
Properties=species:S:1:pos:R:3 Energy:=T 1481.3636103=T pbc="F F F"
C        6.98418658       1.49023686       1.47678015
C        6.13721722       1.62528501       0.20057638
C        4.68559718       1.25945354       0.44698885
O        4.61251726       0.02806725       1.17441071
C        3.98017331       0.07165931      -0.10912655
C        2.55517990       0.00786518      -0.03682498
C        1.34929860       0.02750056      -0.02220289
C       -0.11442586      -0.03022807       0.02037976
O       -0.74158650       1.23498629      -0.13879376
H        6.78339311       0.53726837       1.98116540
H        8.05541968       1.52655565       1.24264601
H        6.75937092       2.30092402       2.18295234
H        6.20340878       2.64920413      -0.18944682
H        6.52182271       0.96020644      -0.58739019
H        4.01612222       2.05211730       0.81705106
H        4.46076174      -0.49299225      -0.91351761
H       -0.48340216      -0.62182219      -0.82572784
H       -0.43675414      -0.54936537       0.94362197
H       -0.75792789       1.67227876       0.71545072
