19
Properties=species:S:1:pos:R:3 Energy:=T 1357.4879727=T pbc="F F F"
C        0.25860178      -2.40117933      -0.36169593
C       -0.84091460      -1.38943703      -0.03627501
O       -1.64016821      -1.19357262      -1.20053898
C       -2.54454162      -0.12748122      -1.08340783
C       -2.48463663       0.90010036      -2.17915076
C       -1.99952288       1.22571323      -0.77674313
C       -0.54008374       1.21004000      -0.33614231
C       -0.27125195      -0.05187333       0.49933447
O        0.45313712      -0.04777701       1.46672359
H        0.92687043      -2.51558995       0.49333420
H       -0.19062988      -3.36845669      -0.61167978
H        0.83614527      -2.06268197      -1.22817855
H       -1.45943599      -1.81341959       0.77350763
H       -3.53297014      -0.39677004      -0.70833798
H       -1.79655765       0.74960615      -3.00726867
H       -3.45558243       1.31844841      -2.42423730
H       -2.66915882       1.84345256      -0.18922296
H        0.14083692       1.18096080      -1.19645960
H       -0.27145607       2.10294692       0.23779872
