19
Properties=species:S:1:pos:R:3 Energy:=T 1711.8935053=T pbc="F F F"
C        1.18171901      -0.20420258      -0.01505582
O       -0.20393118       0.07987022      -0.23862659
C       -0.66822755       0.84647501       0.87155066
C       -2.00853376       0.57003579       1.39525274
C       -2.16061890       1.50154140       2.51871758
C       -1.06635303       2.60472930       2.29344972
C       -0.55280556       2.34000001       0.92202212
C        0.12755675       3.17539164       0.01413822
O        0.11689315       4.38435620       0.12910368
H        1.27500538      -0.50007960       1.02913166
H        1.57288219      -0.94730667      -0.70923556
H        1.73404144       0.73536238      -0.10403580
H       -0.00137549       0.52278462       1.65719889
H       -2.56878746      -0.34732425       1.28413537
H       -3.16999261       1.91934654       2.56076772
H       -2.01141139       1.00871578       3.48845153
H       -1.44875247       3.61095286       2.43667261
H       -0.24084770       2.47344266       3.00976355
H        0.64338996       2.67687981      -0.82214192
