19
Properties=species:S:1:pos:R:3 Energy:=T 1627.8455766=T pbc="F F F"
C       -0.12450206       0.20047044      -0.06746584
C        1.37982998      -0.04131988      -0.01469929
O        1.58507690      -0.89201157       1.10295516
C        2.20345956       1.27556595       0.08633048
C        2.57378281       1.57794425      -1.33950998
C        2.51198555       0.46005726      -2.08823204
C        1.97682108      -0.65667909      -1.29662946
C        1.54272470      -1.93981939      -1.87367344
O        2.75875194      -1.87908161      -1.15370118
H       -0.44734404       0.42094089       0.95599740
H       -0.44614447       0.99241604      -0.75074432
H       -0.62902989      -0.72989079      -0.35603516
H        2.40788825      -1.37942830       0.95375464
H        1.63735026       2.06942214       0.57285499
H        3.11111862       1.12883664       0.68300014
H        2.87336232       2.55280435      -1.69605758
H        2.77924044       0.36765448      -3.13349208
H        0.70742936      -2.45557030      -1.39645276
H        1.67059853      -2.13456157      -2.93575960
