19
Properties=species:S:1:pos:R:3 Energy:=T 3241.7908254=T pbc="F F F"
C        2.09212222      -2.27432181       2.01404285
C        0.62078917      -2.36063177       1.69708238
O       -0.03000386      -3.64052602       1.75646448
C       -0.63852082      -2.57712221       2.51083966
C       -1.40224903      -1.58054940       1.63753590
C       -0.14776194      -1.44062160       0.75123337
C       -0.13191961      -1.35676241      -0.74977221
C        0.35094642      -0.18323079       0.06680022
O        1.73822391       0.04145082      -0.00443463
H        2.41303053      -3.11655466       2.63324932
H        2.68952682      -2.26712208       1.09457449
H        2.32742109      -1.34247333       2.55348103
H       -0.83599683      -2.82559747       3.54497392
H       -2.33355051      -1.89942397       1.15585996
H       -1.60897404      -0.65770342       2.19148091
H        0.65399240      -1.86565196      -1.30017004
H       -1.08791178      -1.27925878      -1.26320705
H       -0.25724547       0.72537047       0.10538644
H        2.03590085       0.37407095       0.85614859
