19
Properties=species:S:1:pos:R:3 Energy:=T 162.7853177=T pbc="F F F"
C       -2.50798868      -2.00610366       1.52400355
C       -1.85826341      -1.28843436       0.33082901
C       -0.31190026      -1.18597713       0.36547792
O        0.34199809      -1.86691905      -0.72803518
C       -0.01100871       0.28609651       0.22063331
C        1.40015928       0.80502267       0.15046171
C       -1.12213853       1.01231831       0.06833414
C       -2.32187980       0.16743141       0.16254975
O       -3.46991135       0.54441032       0.10438327
H       -2.19014672      -3.05693703       1.55153171
H       -2.25935982      -1.55129155       2.49173586
H       -3.59162869      -1.99956708       1.38365901
H       -2.11561387      -1.88322560      -0.55283952
H        0.09003364      -1.60522480       1.29648894
H        0.53382757      -2.77544728      -0.46932340
H        1.94912339       0.59018287       1.07312461
H        1.96362188       0.31777459      -0.65325991
H        1.42089457       1.88817263      -0.01051897
H       -1.16022840       2.08892777      -0.10172610
