19
Properties=species:S:1:pos:R:3 Energy:=T 3200.0736501=T pbc="F F F"
C        1.40824403       0.11628630      -0.13296847
O        0.00537957       0.17764815      -0.03947928
C       -0.39879757       0.61004352       1.22487404
C       -0.21519146      -0.25645233       2.50472644
O       -0.79963577       0.48612172       3.59122180
C       -1.68891838      -0.23849862       2.73776416
C       -1.91882085       0.55031953       1.47418864
C       -3.03686635       0.35035681       0.49035020
C       -2.90711721       1.65806020       1.23131583
H        1.83379215      -0.61186432       0.57141671
H        1.64582645      -0.18351010      -1.15560441
H        1.85354505       1.09376699       0.09982089
H       -0.00379792       1.61678189       1.42907988
H        0.58519716      -0.93207066       2.78641967
H       -2.38237918      -0.90316863       3.24249306
H       -2.81780439       0.39430410      -0.57252029
H       -3.84425720      -0.30774401       0.78772484
H       -2.52702516       2.48629667       0.64385683
H       -3.62884400       1.91513267       1.99758927
