19
Properties=species:S:1:pos:R:3 Energy:=T 1864.3190450=T pbc="F F F"
O        0.48338194      -0.18799634       0.36692332
C       -0.57066691       0.66953535       0.73518621
C       -1.98289888       0.16502593       0.61125296
O       -2.95541181       0.78396421       1.43089171
C       -3.20755818       2.10510799       0.94461783
C       -4.35553970       2.21376086      -0.08915088
C       -3.34986967       2.74764034      -1.15637372
C       -2.17814617       2.45295271      -0.16955598
C       -1.44750227       1.14663207      -0.40445074
H        0.23598573      -1.09107501       0.60061841
H       -0.30665265       1.37855156       1.51813020
H       -2.17194624      -0.89951150       0.46469031
H       -3.28920435       2.78534011       1.80041503
H       -4.78638730       1.24059363      -0.31898210
H       -5.15235878       2.90814887       0.19642035
H       -3.31192849       2.19017133      -2.09962178
H       -3.46001904       3.81290656      -1.37982599
H       -1.51917069       3.30366993       0.02580089
H       -1.06314639       0.86849996      -1.38456587
