19
Properties=species:S:1:pos:R:3 Energy:=T 2235.0628748=T pbc="F F F"
C        1.23902633      -0.43946853      -0.25479973
O       -0.12485869      -0.35603832       0.10913621
C       -0.47561361       0.31836069       1.18506041
C       -1.65465586       0.69901965       1.86548189
C       -1.69396475       2.20208103       1.61445752
C       -0.17839061       2.32121879       1.71958862
C        0.61428403       3.40350503       1.20164857
O        0.36439009       1.60048718       2.83314905
C       -0.28618201       0.38972359       2.65925284
H        1.73078024      -1.15355723       0.40725636
H        1.27047166      -0.87126685      -1.28109501
H        1.77526779       0.50978516      -0.25666605
H       -2.50093547       0.06341478       1.89100897
H       -2.04280384       2.32350093       0.58323030
H       -2.17892386       2.85518006       2.34861788
H        0.29631477       4.29810902       1.70469941
H        1.67127717       3.20826435       1.34076446
H        0.44699847       3.56324065       0.14295134
H       -0.24413073      -0.46273011       3.35830779
