19
Properties=species:S:1:pos:R:3 Energy:=T 1464.2943650=T pbc="F F F"
C        2.51739435       2.46961792       0.56753683
C        3.08992281       1.12819624       1.01476265
O        4.51927927       1.16410034       0.84782090
C        2.53890500      -0.02818607       0.15501108
C        1.08746301       0.00403348       0.23063762
C       -0.10761681       0.03393791       0.30068870
C        3.10806095      -1.39361104       0.51346809
C        4.48643668      -1.71389331       0.11750323
O        3.38367400      -2.22611602      -0.61208244
H        2.95579057       3.29025464       1.14588460
H        2.75313817       2.61077505      -0.49505457
H        1.42858455       2.50257603       0.68676474
H        2.86605310       0.94400797       2.07044379
H        4.97230637       1.10879105       1.70759842
H        2.83177576       0.14645625      -0.88887048
H       -1.15232812       0.19776543       0.32404542
H        2.70203052      -1.90597663       1.38585655
H        5.04182656      -0.88931597      -0.31879649
H        5.06410330      -2.44705386       0.66222111
