19
Properties=species:S:1:pos:R:3 Energy:=T 2400.6975841=T pbc="F F F"
C       -3.55129308       2.74135031      -0.03751764
C       -2.09403027       2.44091209       0.03411557
C       -1.20974869       1.98807095      -1.13202493
C       -0.28509308       1.30299277      -0.08489794
C        1.18948825       1.65282339      -0.05582342
O        1.52920387       0.25404872       0.05202872
C        0.14424477      -0.16060762      -0.08270652
C       -1.21009718       1.78064265       1.03197106
O       -1.32292164       3.19717460       0.99144131
H       -3.90214072       3.26017335       0.85642655
H       -3.78220478       3.36288773      -0.90970192
H       -4.13071095       1.81728110      -0.13844708
H       -1.70967909       1.31182580      -1.83344930
H       -0.75304783       2.82728550      -1.66633943
H        1.56994457       2.10778620      -0.97851291
H        1.51652543       2.25327097       0.80068169
H       -0.04581856      -0.72945980      -1.00113502
H       -0.18005314      -0.76302494       0.77633163
H       -1.40505681       1.31551576       1.99045043
