19
Properties=species:S:1:pos:R:3 Energy:=T 583.5575517=T pbc="F F F"
O        0.99352254       0.86478355       0.24202507
C       -0.21782920       0.14442778       0.02332119
C       -1.44000246       0.98972389       0.34771649
C       -2.73583920       0.64543937      -0.41309798
O       -2.69421466       1.89893202      -1.13089721
C       -1.53818291       2.35960720      -0.38208232
C       -1.84941172       3.34920599       0.70006960
C       -2.01294478       2.75010501       1.87753808
C       -1.61930131       1.29357360       1.85001687
H        1.15221500       0.99430929       1.18998534
H       -0.19675237      -0.16623960      -1.02741449
H       -0.25813443      -0.78345366       0.62456176
H       -2.66957447      -0.21542677      -1.09178086
H       -3.64502733       0.55296911       0.19455732
H       -0.72743559       2.66512950      -1.05006384
H       -1.87917830       4.41150993       0.51233383
H       -2.28490580       3.27049557       2.78456369
H       -0.66035792       1.18580716       2.37836090
H       -2.33440507       0.62556079       2.34798664
