19
Properties=species:S:1:pos:R:3 Energy:=T 1503.6129757=T pbc="F F F"
C        0.48834550       0.53546308      -2.10266815
C        1.74928945       0.42558196      -1.28857975
C        2.30597219       1.63676126      -0.53892904
C        3.59148747       1.03782972       0.10360103
C        3.47742171      -0.40831272      -0.33735218
O        4.44974977      -1.27863571       0.10799662
C        2.95183714      -0.40512030      -1.82163454
O        2.21630150      -1.66885946      -1.59137917
C        1.96794941      -0.82650737      -0.39638511
H       -0.35460020       0.85557966      -1.47764461
H        0.60679682       1.26614695      -2.91218740
H        0.20975872      -0.42254371      -2.56167857
H        2.52127221       2.48359767      -1.20716173
H        1.59654921       2.00940630       0.21566108
H        4.51008446       1.49344779      -0.28824755
H        3.62063473       1.14483838       1.19383957
H        4.23139072      -2.16341705      -0.23658450
H        3.50698003      -0.31781864      -2.76115630
H        1.32123769      -1.26151765       0.37382839
