19
Properties=species:S:1:pos:R:3 Energy:=T 89.0848621=T pbc="F F F"
C       -0.31365118       0.81787875       0.30076593
C        0.90723948       1.73573959       0.14185137
C        2.07982014       1.20438028       0.94924498
O        2.86160177       0.39947233       0.48895589
C        0.49298504       3.19648208       0.45171609
O       -0.11627027       3.25470462       1.75255582
C        0.40878399       4.35094023       2.50979130
C        1.53625279       4.87312484       1.67691188
C        1.56507341       4.25909724       0.49552761
H       -0.63606928       0.81798239       1.34758189
H       -1.12540977       1.18177196      -0.33898029
H       -0.06998246      -0.20998064       0.02029235
H        1.24365383       1.74325547      -0.89794872
H        2.07818806       1.42480830       2.03211433
H       -0.26195437       3.43894141      -0.31632993
H       -0.37166215       5.11795260       2.63679914
H        0.71831331       4.02560643       3.51737912
H        2.16476562       5.68673537       2.00275106
H        2.14060352       4.58098757      -0.36581044
