19
Properties=species:S:1:pos:R:3 Energy:=T 1374.0774009=T pbc="F F F"
C        1.37258805       0.16829899      -0.21092022
O        0.21251313      -0.45055998       0.33592215
C       -0.37632897       0.36441127       1.29478874
C       -0.22594600      -0.06882580       2.72327761
O       -0.81564005       1.04240231       3.41171932
C       -1.26853538       1.88111959       2.36328194
C       -1.79461725       0.97915540       1.18490840
C       -1.24519951       1.90534673       0.08253760
C       -0.22003049       1.91254508       1.23641989
H        2.13140175       0.42768293       0.54759818
H        1.83654813      -0.51739461      -0.92585220
H        1.10999091       1.08755368      -0.73887742
H       -0.79192620      -0.98738664       2.89586050
H        0.82243334      -0.21664571       2.99173427
H       -1.79818926       2.75681142       2.73903467
H       -2.74689277       0.43706431       1.17703559
H       -0.73116651       1.34974263      -0.70059541
H       -1.77228408       2.78332105      -0.27982418
H        0.74099943       2.44529393       1.18563133
