19
Properties=species:S:1:pos:R:3 Energy:=T 2915.0881838=T pbc="F F F"
C       -0.04914436      -0.16537909       0.03372019
C        1.43006279       0.10110197      -0.08265927
O        2.12300744      -0.32789907       1.06424000
C        2.10629129       1.37418082      -0.57220165
C        1.47318895       2.24587862      -1.51560936
C        0.97327186       1.40518226      -2.65706149
C        1.91760380       0.25244602      -2.65148884
O        2.56574074      -0.16781832      -3.75489837
C        2.37610578      -0.01319447      -1.33098088
H       -0.36553637      -0.09826838       1.07714164
H       -0.67178857       0.51972800      -0.53996774
H       -0.24358861      -1.17600011      -0.33348720
H        1.64577807      -1.05682322       1.47172691
H        2.75397815       1.76124231       0.20264718
H        1.39241564       3.32666551      -1.45587467
H       -0.03004827       1.01958825      -2.43048728
H        1.02657657       1.84643614      -3.65353232
H        2.11440034       0.26449650      -4.49519307
H        3.21210304      -0.67838508      -1.17223466
