19
Properties=species:S:1:pos:R:3 Energy:=T 1543.3997228=T pbc="F F F"
C        1.54784577       0.73875372      -0.07711428
O        0.25455391       1.12401261       0.34411683
C       -0.42730027       0.09491710       1.07711883
C       -1.89076808       0.45766136       1.13018400
O       -2.20075213       1.87146214       1.11917241
C       -2.45094465       1.14197611      -0.06403854
C       -3.87852846       0.97368257      -0.47971285
C       -2.80564766      -0.32421618       1.91298475
C       -3.49059999      -0.97855170       2.65328848
H        1.59776998      -0.31089207      -0.41018369
H        1.85502596       1.36330436      -0.92050403
H        2.28934950       0.84274922       0.72773082
H       -0.30290346      -0.87096790       0.55696337
H       -0.02915874      -0.06417474       2.09440775
H       -1.77876854       1.35926802      -0.88753099
H       -4.48659415       0.52395794       0.31173360
H       -4.29890315       1.94939406      -0.74375661
H       -3.90557179       0.32914699      -1.36049699
H       -4.16244233      -1.44569364       3.32062599
