19
Properties=species:S:1:pos:R:3 Energy:=T 1342.6031289=T pbc="F F F"
C       -2.23781155       3.97318299       2.02394484
C       -2.12632261       2.56155365       1.50437342
C       -0.93058100       2.12135062       0.73808798
C       -0.40606751       0.73184148       1.00170865
C       -0.18867830      -0.08574180      -0.24568340
O        0.88007179      -0.15525618      -0.79811183
C       -2.26601331       2.22598149       0.03150816
C       -2.78677301       0.91929345      -0.49449942
O       -3.45293295       0.15868338       0.16765559
H       -1.58677992       4.08564319       2.90070139
H       -1.94484254       4.71794820       1.26785872
H       -3.25563693       4.21632355       2.35861785
H       -2.50198658       1.77285866       2.15264170
H       -0.22676374       2.87846064       0.43359023
H        0.50397280       0.79175249       1.60482050
H       -1.18688397       0.22465716       1.57197795
H       -1.01175762      -0.77033990      -0.50431142
H       -2.41257620       3.03897023      -0.68041954
H       -2.54762561       0.72155432      -1.56470916
