19
Properties=species:S:1:pos:R:3 Energy:=T 688.6580078=T pbc="F F F"
C        1.38654725       1.38103097      -3.39281431
C        0.56289653       0.48574782      -2.49128428
C       -0.18860312      -0.76367763      -3.02982067
C       -0.35353474      -1.03548846      -1.52305233
O       -1.20140732       0.04603096      -1.10537232
C       -0.57515050       1.16826103      -1.72076116
C        1.10590795      -0.48369591      -1.38061530
C        1.55005116       0.09696701      -0.05439671
O        2.68747480       0.12607395       0.34653721
H        1.80204548       2.23877490      -2.84631370
H        2.21572048       0.81820706      -3.84294459
H        0.74715978       1.78720932      -4.18901992
H       -1.10360051      -0.55486772      -3.59928738
H        0.45676184      -1.47592368      -3.53871245
H       -0.68636649      -1.96968428      -1.07249578
H       -1.27819402       1.68121226      -2.39421914
H       -0.20920679       1.87076253      -0.95406965
H        1.84956561      -1.17792763      -1.77836579
H        0.73576239       0.60470792       0.50278938
