19
Properties=species:S:1:pos:R:3 Energy:=T 1288.2605082=T pbc="F F F"
C        0.19165337       4.99140662       0.98091856
C       -0.99001945       4.45897502       0.18731777
O       -2.13219211       4.74176023       0.47109937
C       -0.69777840       3.40071506      -0.85255106
C       -1.88763428       2.73267383      -1.51607652
C       -1.08265039       1.95850008      -0.51326334
C       -0.34567434       0.72798637      -1.00028470
C        0.78539302       0.29453004      -0.10391180
O        1.94783652       0.46013663      -0.36686025
H       -0.17174073       5.55020705       1.84448455
H        0.82491026       4.17488558       1.34797979
H        0.81501418       5.63531354       0.34838747
H        0.15644927       3.60752208      -1.49638573
H       -2.88416632       3.01395738      -1.19683086
H       -1.77445520       2.56008319      -2.57939467
H       -1.58901096       1.86711832       0.44674612
H       -1.06564297      -0.09391544      -1.05545998
H        0.07933245       0.87839110      -1.99307737
H        0.49981619      -0.22794689       0.83489245
