19
Properties=species:S:1:pos:R:3 Energy:=T 75.5413743=T pbc="F F F"
C        1.33745921       0.85726073       0.30078716
C       -0.03812914       0.29378643       0.25442227
C       -1.14996044       0.96706273      -0.04962079
C       -2.41174183       0.14911502       0.16205297
C       -3.32425866       0.73241934       1.25554651
O       -3.21447385       0.03495698      -1.02597346
C       -1.81692834      -1.24671370       0.48217882
O       -2.47910683      -2.25384029       0.51886054
C       -0.31440220      -1.15513752       0.60590666
H        1.76254546       0.76971139       1.30819901
H        2.02439856       0.32443631      -0.36434367
H        1.34337426       1.91670781       0.02906576
H       -1.21780298       1.99262750      -0.38656958
H       -2.81720982       0.89093480       2.21160870
H       -3.71865498       1.68723788       0.89428857
H       -4.17954445       0.07629429       1.43288191
H       -2.99348618      -0.81140442      -1.45239267
H        0.00567845      -1.38131550       1.62845429
H        0.22106307      -1.85428962      -0.04842364
