19
Properties=species:S:1:pos:R:3 Energy:=T 1329.1536161=T pbc="F F F"
C       -2.18542072       4.53150511      -0.58674413
C       -1.65162297       3.22390132      -0.06108192
C       -0.15736477       2.89604362      -0.03373507
C       -1.10144567       1.79664575       0.51094555
C       -1.87337403       2.79314554       1.38797046
C       -2.10602700       1.86839503      -0.63318792
O       -0.56026824       0.57794705       1.03339760
C        0.09794056      -0.18697891       0.11514777
O        0.28766459       0.11737186      -1.03890507
H       -1.73143039       5.32750211       0.00580389
H       -1.90470410       4.60236323      -1.64035795
H       -3.27162319       4.50848539      -0.46604801
H        0.29840257       2.75515767      -1.01534606
H        0.45526877       3.46836013       0.66380224
H       -2.88851641       2.51606291       1.65974850
H       -1.31631246       3.34699432       2.13913545
H       -1.76110649       1.66290032      -1.64685320
H       -3.13353026       1.56823179      -0.43342720
H        0.45284008      -1.11893401       0.56850526
