19
Properties=species:S:1:pos:R:3 Energy:=T 1457.8358027=T pbc="F F F"
O        1.29928121       0.42180750      -0.43824536
C       -0.02128538       0.23444291       0.04721456
C       -0.91818451       1.30517378      -0.56587471
C       -2.40384579       1.07927653      -0.21280492
C       -2.86643392       1.34478123       1.16152866
C       -2.74256209       1.24078798       2.35487884
C       -3.29304459       1.78916199      -1.20453937
C       -4.16395370       0.88501009      -1.93416225
O       -2.92624026       1.31355058      -2.51360439
H        1.85920729       0.83041801       0.23511678
H       -0.36125010      -0.76763529      -0.26703623
H       -0.09650695       0.26689743       1.14883088
H       -0.56628634       2.29095453      -0.24541748
H       -0.83138254       1.26401680      -1.65019040
H       -2.63571835       0.03605061      -0.41954964
H       -2.53911942       1.11501538       3.38688569
H       -3.45026328       2.86270514      -1.18102945
H       -4.15846407      -0.13473570      -1.55591983
H       -5.05741825       1.23712932      -2.42589079
