19
Properties=species:S:1:pos:R:3 Energy:=T 77.0944860=T pbc="F F F"
C        2.29701434      -0.83471216       0.74355750
C        1.30480454       0.01978646      -0.08783042
C        1.68617277       1.47283080      -0.15977338
C        1.01782994       2.55414537       0.28148592
C        1.98007279       3.71302276       0.30759286
O        3.04312067       3.31753857      -0.54664314
C        3.05785672       1.88840718      -0.62796377
C        2.50066951       3.99830977       1.72535526
O        1.76992733       4.39915229       2.59240058
H        2.59034982      -0.33121860       1.67465672
H        1.88000118      -1.80586419       1.02989608
H        3.21140206      -1.04124761       0.17627737
H        1.24774086      -0.37525184      -1.10687228
H        0.28782282      -0.04127208       0.31805010
H       -0.03071216       2.64905271       0.53405843
H        1.54874712       4.65436474      -0.05377848
H        3.31532798       1.58969897      -1.65681029
H        3.85879635       1.48649686       0.02022398
H        3.59733492       3.91933901       1.86845640
