19
Properties=species:S:1:pos:R:3 Energy:=T 2812.5784532=T pbc="F F F"
C        0.62905148       0.19133721      -0.89414307
O        0.26743804      -0.20939043       0.44253289
C        1.54375807       0.40141121       0.24638879
C        1.79965948       1.73477309       0.81151847
C        1.17101793       2.21121233       2.10500202
C        0.88969535       2.93608760       0.82504194
C        1.78342349       4.12301981       0.55129949
O        3.13897967       3.64700625       0.50638752
C        3.18268463       2.22116044       0.45783103
H        0.81856135      -0.61427526      -1.59692927
H        0.08145131       1.04583437      -1.29033046
H        2.38825640      -0.28102646       0.34087075
H        0.34101953       1.66534039       2.53680760
H        1.85699140       2.66281778       2.80964950
H       -0.11326945       2.87410983       0.42406370
H        1.54236057       4.60571026      -0.40167459
H        1.72587219       4.86641799       1.35459656
H        3.45726150       1.89712022      -0.55195710
H        3.95696819       1.84022337       1.13876521
