19
Properties=species:S:1:pos:R:3 Energy:=T 3133.9580056=T pbc="F F F"
O       -0.56183885      -4.34774921      -0.84442810
C        0.13413497      -3.67159839       0.16560342
C       -0.48510547      -3.13194547       1.43200801
C       -0.17727895      -2.20462620       0.29333512
C        0.95613512      -1.20683033       0.32291649
C        1.40157540      -0.78425085      -1.11275902
C        0.69168617       0.54475011      -0.86212143
O        1.39119191       1.25138950       0.15733994
C        0.47398236       0.22500839       0.57578496
H       -1.12631911      -5.01080692      -0.43940157
H        1.19565740      -3.91495427       0.19282930
H       -1.53497027      -3.33424738       1.62002928
H        0.12687705      -3.02892138       2.32780623
H       -1.04419857      -1.95349266      -0.30946634
H        1.78005030      -1.52894087       0.96081678
H        2.48030843      -0.69298582      -1.24450635
H        0.98917410      -1.37795049      -1.92918944
H        0.13234436       1.12924924      -1.58284807
H       -0.20225615       0.54501374       1.36051096
