19
Properties=species:S:1:pos:R:3 Energy:=T 1351.1530967=T pbc="F F F"
C        1.11576194       1.51109341      -0.36821455
C       -0.31856730       1.53330148       0.25895616
C       -0.19365515       0.00668924       0.32626370
C        1.32250283       0.06576723       0.19852938
O       -0.87452487      -0.86254129       1.25738912
C       -1.35203854      -1.72322390       0.19280617
C       -2.72156393      -1.27631126      -0.30779924
O       -2.09113359      -0.24661436      -1.10863842
C       -0.77837059      -0.74637934      -0.83170045
H        1.09105167       1.53061419      -1.46062545
H        1.81107183       2.27304578       0.00080055
H       -0.36942861       1.97909966       1.25323626
H       -1.11879207       1.93007194      -0.37988533
H        1.82869449       0.04173406       1.16650946
H        1.77663987      -0.66729172      -0.48292519
H       -1.11565157      -2.76582567       0.38217965
H       -3.23524650      -2.00411514      -0.94824226
H       -3.42323845      -0.89338373       0.43745009
H       -0.19181108      -0.94866066      -1.72709004
