19
Properties=species:S:1:pos:R:3 Energy:=T 2104.0808367=T pbc="F F F"
C       -1.92790675       1.20723302      -2.26964319
C       -1.28585440       1.93116288      -1.10450443
C       -1.22015426       3.43045302      -0.92599080
C       -1.91243255       2.61875136       0.12156225
O       -0.98017102       2.02322736       1.01795072
C       -0.29768799       1.34557576      -0.07944854
C        1.20859665       1.55679182      -0.10009381
O        1.41894954       0.16182513       0.18930588
C       -0.00019097      -0.12915145       0.18412169
H       -2.65499648       0.45944528      -1.92463925
H       -2.45922129       1.91247119      -2.92031132
H       -1.18456165       0.67152132      -2.86410301
H       -0.28130742       3.84289762      -0.57499368
H       -1.82602275       4.08325583      -1.55007054
H       -2.93103140       2.71132827       0.46651324
H        1.63069457       1.85186307      -1.06888270
H        1.60722965       2.21246401       0.68539010
H       -0.26133447      -0.82912538      -0.61922437
H       -0.35692731      -0.50618982       1.14973138
