19
Properties=species:S:1:pos:R:3 Energy:=T 2190.6201689=T pbc="F F F"
C        1.47371717      -0.00518133       0.12719903
O        0.05400496      -0.02648377       0.02213841
C       -0.46650682       0.62704824       1.11907568
C       -0.26185109       2.14614081       1.31321880
C       -1.50124963       2.09665358       2.20853562
C       -1.93945327       0.80208404       1.53076480
C       -1.43774879       0.80437536       2.98720029
O       -2.06577516       0.62250228       4.19850926
C       -0.20215181       0.05985765       2.53130411
H        1.82361828      -0.55662894       1.01587061
H        1.91011665      -0.48718143      -0.76593016
H        1.86584755       1.01958931       0.19601125
H        0.70080147       2.47760845       1.73030959
H       -0.48088035       2.67458296       0.38011010
H       -2.15502587       2.90300356       2.52337989
H       -2.89595521       0.55227557       1.08809365
H       -2.87745073       1.15117131       4.19575730
H        0.77568095       0.27457438       2.98437670
H       -0.40551878      -1.01338216       2.52223516
