19
Properties=species:S:1:pos:R:3 Energy:=T 2857.8961136=T pbc="F F F"
C        1.51722034       0.70374247      -3.08199768
C        0.46032952       0.31676247      -2.07704292
C        0.10606619      -1.14692253      -2.04522324
C       -0.98231674      -0.15515170      -2.36763008
C       -1.84493312       0.22762123      -1.19757617
O       -1.44031330      -0.30026795       0.08247630
C       -1.06581066       1.03978640      -0.25904591
C        0.38721571       1.11930436      -0.76740605
O        1.32827398       0.66591063       0.18188209
H        1.48476287       0.04891947      -3.95386426
H        1.40695345       1.73657465      -3.41697811
H        2.51702593       0.60900849      -2.64597348
H        0.49441643      -1.72578069      -2.88170511
H        0.02564693      -1.68448612      -1.10855435
H       -1.40209741      -0.12148144      -3.36836545
H       -2.91378119       0.36121427      -1.30790627
H       -1.47098587       1.80847512       0.40336567
H        0.62050291       2.17191619      -0.96321713
H        0.87447314      -0.03140531       0.67720162
