19
Properties=species:S:1:pos:R:3 Energy:=T 858.5453018=T pbc="F F F"
C       -0.37720467       1.38004809      -0.04413663
O       -0.22683106       0.00066330      -0.52333858
C        1.17770704      -0.08092929      -0.11715038
C        2.35980980      -0.24213772      -1.09202681
C        2.91829657       1.20474739      -1.01004883
C        3.38393132       1.53800003       0.44075150
C        2.04412534       1.83041008       1.19514618
C        1.12001418       1.43165037       0.06747663
O        1.72153718       1.98740752      -1.11296615
H       -0.85456914       2.01605008      -0.79748149
H       -0.90318575       1.43190517       0.91666429
H        1.27835446      -0.74092362       0.75478464
H        3.08322742      -0.99285362      -0.76569406
H        2.00070253      -0.49859338      -2.09195237
H        3.61562015       1.47341118      -1.80586626
H        3.97410105       0.73356162       0.88872342
H        3.99957706       2.44074862       0.43493908
H        1.89520725       1.25489357       2.11417174
H        1.91962934       2.88815053       1.44143435
