19
Properties=species:S:1:pos:R:3 Energy:=T 845.5548441=T pbc="F F F"
C        0.49682162      -0.92348748       0.13877578
C        1.18109165      -0.01181651       1.17533333
O        0.05645988       0.31529483       2.02714504
C       -0.99041318       0.66680740       1.08993779
C       -0.20741637       0.43652289      -0.18500066
C       -0.46928866       0.80803681      -1.62086502
C        0.99168473       0.95454057      -2.12921493
O        1.84099770       1.24965874      -1.00629316
C        1.08317128       1.17171045       0.17403202
H        1.12931611      -1.31005381      -0.65662115
H       -0.11760128      -1.71112054       0.58378593
H        2.06610231      -0.26867268       1.75592431
H       -1.85832865       0.01769989       1.23541407
H       -1.29932801       1.70860851       1.24072728
H       -1.04167019       0.07555327      -2.20364841
H       -1.00840740       1.76285296      -1.64660447
H        1.35552734       0.02734585      -2.58699925
H        1.10750908       1.76170359      -2.85852278
H        1.01207137       2.14884576       0.67512465
