19
Properties=species:S:1:pos:R:3 Energy:=T 1321.6899924=T pbc="F F F"
C        1.32287305      -0.25255036       0.24378389
O        0.04345768       0.22505777      -0.12832727
C       -0.56656646       0.82848471       0.98985637
C       -1.95807025       0.40756372       1.49348142
C       -1.56405748       1.02023035       2.86604058
C       -0.35849049       0.17072553       2.38191587
C       -1.35797501      -0.93169917       1.98771958
C        0.83221176      -0.21146939       3.20333791
O        1.95453557       0.22387069       3.09012081
H        1.23485705      -1.15187743       0.84261949
H        1.90098714      -0.50072222      -0.64826689
H        1.84308694       0.49258443       0.84693862
H       -0.41505741       1.91527472       0.96174622
H       -2.92811109       0.58687051       1.01399328
H       -1.47167706       2.10971980       2.91805721
H       -2.09305705       0.59963534       3.72584967
H       -0.94941971      -1.63516979       1.26208048
H       -1.87853763      -1.40551813       2.82391817
H        0.57430903      -0.89899202       4.03732607
