19
Properties=species:S:1:pos:R:3 Energy:=T 1470.5116718=T pbc="F F F"
O        0.81856544       1.58196977       3.53604282
C       -0.35323897       0.80108169       3.75953723
C       -0.36718782      -0.64493362       3.34843048
C       -1.14051942       0.39988409       2.52173231
C       -2.63495641       0.34203627       2.34239959
C       -2.98315771       0.58180286       1.06252465
C       -1.77896990       0.78096732       0.18857410
C       -0.64700470       1.04591839       1.20637347
O        0.58590621       0.52502436       0.73790604
H        1.58004032       0.98544035       3.56407365
H       -0.91920090       1.13283772       4.62041830
H        0.51599888      -1.09431811       2.89934478
H       -0.92509815      -1.32835185       3.97721658
H       -3.33473988       0.12802232       3.14366271
H       -3.99088634       0.61574447       0.66805889
H       -1.52532714      -0.13481507      -0.36238750
H       -1.88657391       1.59360663      -0.53938911
H       -0.58458856       2.13814865       1.38165208
H        1.27687859       0.92929411       1.29347810
