19
Properties=species:S:1:pos:R:3 Energy:=T 173.0175176=T pbc="F F F"
C       -0.26758938      -1.75246041       3.92075357
C       -1.47250640      -1.45807528       3.06907249
C       -2.69300599      -2.07204844       3.08411852
O       -3.58355192      -1.47925323       2.22905153
C       -2.83796553      -0.56962044       1.53268670
C       -1.57646258      -0.46206325       2.05145558
C       -0.49699206       0.50557410       1.67110791
C        0.52240583      -0.09282157       0.68854772
O        1.39163321       0.92220659       0.21479141
H       -0.56269984      -2.33598992       4.79625990
H        0.49254774      -2.32283483       3.36891577
H        0.19299112      -0.81899082       4.26390453
H       -3.06551491      -2.90144542       3.67381874
H       -3.31702129      -0.07513100       0.69774664
H       -0.93826470       1.40063455       1.23028290
H        0.00971445       0.83300449       2.58485636
H        1.04150549      -0.95207805       1.14012157
H       -0.02775617      -0.48864332      -0.17705187
H        2.26336335       0.85250703       0.61753995
