19
Properties=species:S:1:pos:R:3 Energy:=T 1722.1158089=T pbc="F F F"
C        1.98208631      -0.01895032       0.39236852
O        0.65629651       0.02157806      -0.11320987
C       -0.19509178       0.56449732       0.78412895
C       -0.91397259       1.85889311       0.64556516
C       -2.02500554       1.00090543       1.17435473
C       -3.33537855       0.97075597       0.48446948
C       -1.71596382       0.45853363       2.54987182
C       -0.27030528       0.18071427       2.21816689
O        0.58986700      -0.30722503       2.91327968
H        1.99764057      -0.55431568       1.34725801
H        2.56933123      -0.48958715      -0.39236809
H        2.35879750       1.00085427       0.43576528
H       -0.55407325       2.69986539       1.27577626
H       -1.12950415       2.22881431      -0.37057326
H       -3.74725630      -0.03140607       0.36048851
H       -3.99317559       1.58405106       1.10797304
H       -3.33987846       1.36454228      -0.53647597
H       -1.92174832       1.18234334       3.36099346
H       -2.16572351      -0.50628522       2.83380658
