19
Properties=species:S:1:pos:R:3 Energy:=T 1432.8817585=T pbc="F F F"
C       -1.27013327      -0.58289450      -0.18576649
C       -0.33652692      -1.12975663      -1.24408859
C       -0.79761379      -2.12711993      -2.31269482
C       -0.37706422      -0.74571525      -2.69989276
O        0.92073027      -0.63361197      -3.22917646
C        1.81436823      -1.29822533      -2.33134861
C        1.17118296      -1.19773463      -0.92688122
C        1.58292555       0.06215161      -0.17770015
O        2.15542232       0.06451128       0.88246431
H       -1.08101787      -1.06965579       0.77931297
H       -1.12313571       0.49635902      -0.03242375
H       -2.31068600      -0.75001636      -0.48502285
H       -0.12728517      -2.92819056      -2.62918061
H       -1.86172413      -2.33934312      -2.40776204
H       -1.05622345      -0.01557505      -3.12690193
H        1.90333020      -2.35836575      -2.61133416
H        2.79193716      -0.82211268      -2.42566718
H        1.42761634      -2.06713017      -0.30864540
H        1.30389749       1.00416642      -0.70429041
