19
Properties=species:S:1:pos:R:3 Energy:=T 2236.7011811=T pbc="F F F"
C       -0.07383961       0.15669194      -0.04268962
C        1.41285510       0.09710295       0.08432504
C        2.29540038       1.32681328      -0.01629539
C        3.43317165       0.44361930       0.50942657
O        4.53412441       0.98349318       1.14950552
C        3.63173415      -0.49905356      -0.68537167
C        2.27955264      -1.08842537      -0.31390945
O        1.66690002      -2.16472483      -0.89543920
C        2.34397542      -0.53655165       1.10366763
H       -0.49984893       0.71893175       0.79747036
H       -0.34689868       0.69924021      -0.95974371
H       -0.53309243      -0.83768134      -0.05945174
H        2.42319641       1.76687851      -1.01559704
H        1.99810405       2.08312104       0.72763598
H        4.37433382       1.12362914       2.09175220
H        3.61717025      -0.04751470      -1.68337469
H        4.50431130      -1.14323512      -0.55910009
H        2.24155878      -2.94262406      -0.92224701
H        2.11491130      -0.98419125       2.06485660
