19
Properties=species:S:1:pos:R:3 Energy:=T 1622.7848629=T pbc="F F F"
O        1.42542047       0.20403042      -0.35296600
C        0.06055262       0.32180470       0.02826795
C       -0.87814957       0.52242164      -1.16149578
O       -2.02415707      -0.31730359      -1.21796206
C       -0.98344871      -0.56062122      -2.16655228
C       -0.23968725      -1.89428725      -2.02952317
C       -0.13253750      -2.36519904      -3.45490582
C       -0.70090222      -1.52528072      -4.33263926
C       -1.34298211      -0.33631342      -3.64792378
H        1.78332311       1.07802769      -0.57303849
H       -0.21612276      -0.62780072       0.49852966
H       -0.10468197       1.11681700       0.77163180
H       -1.07348309       1.54678798      -1.48400262
H        0.74596454      -1.83364132      -1.55035299
H       -0.83313782      -2.57949936      -1.40964025
H        0.36364418      -3.29603877      -3.71385096
H       -0.77932863      -1.70148313      -5.40164762
H       -0.97832795       0.64712773      -3.98409924
H       -2.43578817      -0.31238799      -3.78210919
