19
Properties=species:S:1:pos:R:3 Energy:=T 813.8474161=T pbc="F F F"
O        0.55933459       0.58571897       0.53213669
C       -0.60713327      -0.07735956       0.97911174
C       -1.73156095       0.02990902      -0.06108590
C       -2.85247877      -0.74840913       0.69144178
C       -2.81908011       0.46626377       1.64686265
C       -2.49133929       1.31162354       0.39853992
O       -1.67926349       2.41886089       0.75871501
C       -1.10472174       2.11807936       2.03883111
C       -1.34775976       0.60476537       2.17635964
H        1.01727864       0.87732441       1.32461280
H       -0.38389697      -1.12942212       1.21490610
H       -1.48298860      -0.14789001      -1.10487990
H       -3.79224206      -0.81744937       0.14231689
H       -2.61099224      -1.73074807       1.10642827
H       -3.64317495       0.69113435       2.32689586
H       -3.31044028       1.62127995      -0.25319420
H       -0.05233639       2.39017201       2.01062926
H       -1.60490678       2.69276231       2.83083836
H       -1.13965796       0.15823409       3.14840279
