19
Properties=species:S:1:pos:R:3 Energy:=T 1262.8492683=T pbc="F F F"
C        1.33241268      -0.91010522       0.30147130
C        0.84476635       0.27913928      -0.54522690
C        1.90647510       1.33902527      -0.74954894
O        2.42500928       1.60995867      -1.79935025
C        2.26598263       2.00921029       0.60950032
O        1.40569291       2.12481675       1.45328035
C        3.62121223       2.62891256       0.76450247
C        3.84027738       3.29858700       2.11182977
C        4.54208518       2.00373328       1.79932375
H        1.78730932      -0.55185978       1.23271592
H        0.48379385      -1.56309245       0.55296712
H        2.07097615      -1.50249063      -0.25145104
H        0.46571073      -0.04147930      -1.51347471
H        0.04728213       0.80567867      -0.02430082
H        4.05615982       3.02626859      -0.14025698
H        4.42483425       4.21060889       2.16736131
H        2.95558965       3.22822955       2.73230492
H        5.60520876       1.98732804       1.60016901
H        4.16928100       1.09774021       2.26180278
