19
Properties=species:S:1:pos:R:3 Energy:=T 1779.7790926=T pbc="F F F"
C       -0.54602446      -3.79369785       1.05852693
C       -1.36859592      -3.80888436      -0.22334511
O       -1.41248708      -4.77068757      -0.96311276
C       -2.10101206      -2.58179771      -0.61474646
C       -1.54452836      -1.22744447      -0.17550853
C       -2.92565476      -1.61139627       0.20095806
C       -4.22377722      -0.89588879      -0.10671016
C       -4.51803724      -1.08840776       1.39763937
O       -3.29340692      -1.86159573       1.56017312
H       -1.13177396      -3.35595123       1.87308543
H       -0.27629378      -4.81188612       1.30472789
H        0.34011291      -3.16457050       0.90758325
H       -2.49012762      -2.64062599      -1.63393110
H       -0.80140742      -1.14312694       0.61356894
H       -1.41193043      -0.50401987      -0.96941897
H       -4.16556054       0.13645274      -0.47211613
H       -4.88605134      -1.46940472      -0.76086393
H       -4.48274326      -0.17925209       1.99481775
H       -5.40034021      -1.67169483       1.66548257
