19
Properties=species:S:1:pos:R:3 Energy:=T 2021.6397417=T pbc="F F F"
C        1.05991676       0.98796965       0.47821877
C        0.93341039      -0.45715723       0.00342335
C        1.48720639      -1.60874641       0.92263483
C        2.63532047      -1.92402538      -0.09565615
C        1.97809560      -0.91091918      -1.03090635
O        2.58314074      -0.01260497      -1.92995726
C        1.74634572      -1.03756076      -2.46291320
C        0.42745382      -0.62864811      -3.04176292
O       -0.19324408      -1.37118560      -3.76616587
H        0.45463548       1.13282403       1.38241388
H        2.08898375       1.26002141       0.73206863
H        0.69404556       1.69060456      -0.27681005
H       -0.09449760      -0.64627873      -0.31481228
H        1.83252007      -1.24974601       1.88851105
H        0.79577527      -2.43691567       1.09228908
H        3.63559055      -1.63799631       0.23769404
H        2.68385568      -2.94746468      -0.47644765
H        2.25012949      -1.79129755      -3.06550064
H        0.10034622       0.41096632      -2.85808150
