19
Properties=species:S:1:pos:R:3 Energy:=T 1370.7794283=T pbc="F F F"
C        5.43528567       1.59979570       0.91107331
C        4.61402468       0.72120701      -0.03018786
O        5.12302065      -0.19187894      -0.63946960
C        3.16180645       0.97754255      -0.21367237
C        1.95821313       0.12414367       0.25974885
C        1.72313584       1.57866244      -0.11137773
C        0.33503892       2.16342028      -0.00877634
C        2.42356889       1.53034631      -1.45884960
O        2.81742353       2.15840503       0.65928842
H        5.01429096       1.57246603       1.92380580
H        6.47332696       1.26890635       0.92140897
H        5.37135503       2.65142689       0.60514063
H        1.48096263      -0.56499370      -0.43395704
H        1.89650649      -0.13943514       1.30787595
H       -0.00636660       2.07000414       1.02228023
H        0.36649301       3.19671061      -0.35472993
H       -0.29094419       1.55917800      -0.67268379
H        1.94613107       0.84063913      -2.15185964
H        2.75975682       2.46912391      -1.88018798
