19
Properties=species:S:1:pos:R:3 Energy:=T 1475.7980769=T pbc="F F F"
C        0.31173597       1.01291531       0.97458866
C        1.68623601       0.53299252       0.53020247
C        2.13102224      -0.79288671       1.14395820
C        3.63497621      -1.09243566       0.93059120
O        4.24035417      -0.40267545      -0.14641724
C        3.57562232       0.70428415      -0.63184950
C        2.75479011       1.64347195       0.31890037
O        1.99122636       2.12351744      -0.85323348
C        2.04962080       0.65377195      -0.97085432
H        0.29304789       1.16438297       2.05983526
H        0.02130229       1.96064643       0.50086155
H       -0.45040398       0.26614154       0.72555809
H        1.94226963      -0.79405486       2.22576395
H        1.50219061      -1.60901111       0.74857553
H        4.20626206      -0.85996411       1.83559736
H        3.78472379      -2.15264430       0.71965462
H        4.19472485       1.20980538      -1.37851483
H        3.09433965       2.41759750       1.01420648
H        1.54695863       0.21107481      -1.83692597
