19
Properties=species:S:1:pos:R:3 Energy:=T 1805.6760400=T pbc="F F F"
C        2.13218862       1.09188297       0.10344577
C        2.48977185      -0.36730398       0.30709720
C        1.25353355       0.05107503      -0.48681515
C        1.87890353      -0.51303092      -1.76949861
O        1.13887777      -1.57320262      -2.31089573
C        1.10638470      -2.63805234      -1.38537437
O        2.34746003      -3.30015000      -1.32680785
C        3.42797187      -2.44955528      -0.94631220
C        3.13070050      -0.95918393      -0.95944051
H        1.76981280       1.61222184       0.98185671
H        2.78381650       1.66599199      -0.55972143
H        2.51525289      -0.83909358       1.28982290
H        0.23660623      -0.15587832      -0.18799024
H        2.06223030       0.20187720      -2.57611416
H        0.80500392      -2.29713951      -0.38624469
H        0.36038649      -3.35519420      -1.71028033
H        3.72897135      -2.71311482       0.06804134
H        4.23736053      -2.72361932      -1.60854714
H        3.98818827      -0.36696920      -1.27312060
