19
Properties=species:S:1:pos:R:3 Energy:=T 1341.1938477=T pbc="F F F"
C        1.55442480      -0.40991718       1.36583755
C        1.18868802       0.19729368       0.02159627
C        2.02519166      -0.46019789      -1.06886977
C        3.38170648       0.14872312      -1.34906748
C        2.39298112       0.12621013      -2.47144862
C        1.80571903       1.38399026      -3.00571846
O        1.94442555       2.49800062      -2.55838229
C        1.90584392      -1.93470755      -0.86400458
O        2.11613192      -2.80201582      -1.67409945
H        0.98205981      -1.32361585       1.31048632
H        2.54391000      -0.81819628       1.29245653
H        1.31567934       0.21497792       2.20599817
H        0.16030580      -0.14266143      -0.04622343
H        1.21525850       1.27782529       0.01119130
H        3.55689424       1.08786044      -0.84007848
H        4.24478901      -0.50296119      -1.39460311
H        2.53312125      -0.62413953      -3.24590494
H        1.20988949       1.20175594      -3.91849879
H        1.72494036      -2.22966544       0.15608321
