19
Properties=species:S:1:pos:R:3 Energy:=T 1180.8572784=T pbc="F F F"
C        1.78516231      -0.03165308      -3.04498518
C        0.54940098       0.27105790      -2.25976067
O        0.30199434       1.71328777      -2.05513321
C       -1.06398342       1.30329597      -1.89529810
C       -1.11752328       0.22295554      -0.76344715
C       -1.76103277      -0.70039691      -1.82395645
C       -0.90590497       0.07545962      -2.82402774
C        0.35080896      -0.24149072      -0.83052185
O        1.29642172       0.27878042       0.08647128
H        2.67798410       0.31848778      -2.52309028
H        1.90123267      -1.10210362      -3.23256113
H        1.72813641       0.47848635      -4.00801591
H       -1.82040455       2.08212725      -1.97779810
H       -1.57951829       0.39777444       0.20804143
H       -1.65398859      -1.78339357      -1.72398195
H       -2.82045963      -0.48439024      -1.98699182
H       -0.98833310      -0.00514453      -3.91073907
H        0.44575482      -1.33372084      -0.79175339
H        0.89767184       1.04869959       0.53122860
