19
Properties=species:S:1:pos:R:3 Energy:=T 1833.2978227=T pbc="F F F"
C        1.46643798      -0.17919611       0.03460522
O        0.05845478       0.04532249       0.00219076
C       -0.43767494       0.73081420       1.08344931
C       -1.85298887       0.63189775       1.61871542
C       -2.01468095       2.14616055       1.43534397
C       -0.46559175       2.25782891       1.31830161
O        0.12064063       2.52141379       2.58370229
C       -0.13928459       1.38986997       3.41936937
C       -0.64192776       0.28315155       2.50276116
H        1.71014927      -0.89445034       0.83557559
H        1.71578698      -0.61205589      -0.94159303
H        2.02164555       0.75863033       0.19143760
H       -2.62381492      -0.11536384       1.47987223
H       -2.46875791       2.33930892       0.46170613
H       -2.48813263       2.72743117       2.22638604
H       -0.06145914       2.96711809       0.59395947
H        0.80400933       1.11256407       3.90247824
H       -0.85857389       1.63787596       4.21149896
H       -0.57774749      -0.74892196       2.83710970
