19
Properties=species:S:1:pos:R:3 Energy:=T 1980.1200128=T pbc="F F F"
C        0.53107026       1.03379975      -1.18085073
O        0.27701892      -0.18851119      -0.46212518
C        0.47206890       0.46387178       0.81203611
C        1.43731053      -0.30227660       1.68452219
O        1.55075461       0.29861002       2.98129231
C        2.69888001       0.32245180       2.11747726
C        3.06999007       1.70906659       1.61487359
C        2.49358269       2.05053527       0.22407459
C        0.98975303       1.75244198       0.10496514
H        1.27961186       0.90714998      -1.97554087
H       -0.38452280       1.45266824      -1.62392127
H       -0.48027863       0.58588566       1.35383791
H        1.30798814      -1.39279889       1.69217351
H        3.51139794      -0.32561802       2.44876647
H        2.70714725       2.44069794       2.35003848
H        4.15861371       1.80762373       1.58825279
H        2.67074114       3.11065700       0.01060227
H        3.04863279       1.50050323      -0.55034597
H        0.39290018       2.63219157       0.35649071
