19
Properties=species:S:1:pos:R:3 Energy:=T 1513.5234199=T pbc="F F F"
C        3.56816179       2.87789711       0.27226121
C        2.87646496       1.95149405      -0.71428309
O        3.74778049       1.74500633      -1.83639035
C        2.52936285       0.57317698      -0.20580107
C        3.63151115      -0.22097880       0.45017164
O        1.86774033      -0.08498355      -1.25500527
C        1.10508107       0.13543171      -0.07495870
C        0.84578202      -1.02576883       0.70760662
C        0.64829258      -2.00832092       1.36875934
H        4.56234672       2.52616586       0.55588462
H        3.70345641       3.84085330      -0.22550708
H        2.99957965       3.05289198       1.19496929
H        1.93693310       2.40156539      -1.06708694
H        3.36921016       0.97619058      -2.28854285
H        3.83558662       0.08720500       1.49012524
H        3.39433172      -1.28627300       0.45120527
H        4.54447979      -0.07287060      -0.12850180
H        0.30564686       0.87021721      -0.13570433
H        0.58727228      -2.87933005       1.96137986
