19
Properties=species:S:1:pos:R:3 Energy:=T 93.9962500=T pbc="F F F"
O        0.32967873       0.27930854      -0.97293925
C        0.06496715      -0.07711018       0.14698423
O       -0.53645089       0.64741522       1.08707851
C       -1.09080731       1.87850156       0.57555958
C       -1.67686059       2.62636733       1.76327707
C       -2.41131408       3.91958170       1.35364365
C       -3.18857832       3.77580344       0.07509251
C       -3.08898438       2.71265227      -0.73089339
C       -2.15012737       1.57363063      -0.49608600
H        0.41706727      -1.03969582       0.54001258
H       -0.27328246       2.46862408       0.12251254
H       -2.36668351       1.93913848       2.26770365
H       -0.86369153       2.81842647       2.46456345
H       -3.06888175       4.22440103       2.18074015
H       -1.69032786       4.74421025       1.24111657
H       -3.83915680       4.60601354      -0.19961568
H       -3.71011823       2.61416037      -1.61783520
H       -2.69344666       0.65985290      -0.20002438
H       -1.64038123       1.29833826      -1.42116049
