19
Properties=species:S:1:pos:R:3 Energy:=T 191.3347816=T pbc="F F F"
O       -1.76598035       4.45369886      -1.24469935
C       -1.70318972       3.10529614      -1.66754199
C       -3.09303641       2.43306157      -1.66876101
C       -3.17506913       1.87058259      -0.28702344
C       -1.97693388       1.97624072       0.35702729
C       -0.89907512       2.25376590      -0.65566649
C       -0.35698229       0.93181739      -1.24961119
C       -0.02250194      -0.09858128      -0.19485268
O       -0.66489889      -1.09120694       0.03970359
H       -2.20896684       4.49560097      -0.38650518
H       -1.25355892       3.13177057      -2.65622049
H       -3.87993081       3.14941981      -1.89940909
H       -3.14890758       1.63947344      -2.41920840
H       -4.08816297       1.46312922       0.13114249
H       -1.82228698       1.93691981       1.43176939
H       -0.05859925       2.83400855      -0.25624658
H       -1.06842465       0.48841381      -1.94646074
H        0.55356211       1.14566226      -1.81510586
H        0.85654317       0.18342615       0.44516892
