19
Properties=species:S:1:pos:R:3 Energy:=T 162.0598133=T pbc="F F F"
O        1.02490019       0.89036155      -0.05231464
C        0.22387151       0.20983926       0.53850697
O       -1.05399649       0.50189271       0.81734595
C       -1.48111061       1.80099991       0.33757076
C       -1.66720740       2.69888385       1.54768379
C       -2.08568455       4.14999062       1.17029999
C       -1.16682158       5.01779923       1.98163128
C       -0.21082210       4.29942862       2.58714500
C       -0.37572569       2.82630076       2.41390419
H        0.45475092      -0.81823866       0.83143062
H       -0.70977065       2.20014291      -0.31754838
H       -2.42593912       1.65008308      -0.19005463
H       -2.44492449       2.23948020       2.16611700
H       -2.01954336       4.36427771       0.09005093
H       -3.14681384       4.31478587       1.39640399
H       -1.30271634       6.09581638       2.03038764
H        0.64837051       4.69617857       3.11617319
H        0.52965741       2.43676308       1.92569375
H       -0.42916473       2.24756462       3.34773154
