19
Properties=species:S:1:pos:R:3 Energy:=T 2099.7753364=T pbc="F F F"
C       -0.03229934       0.16166847      -0.13249223
C        1.45110980      -0.03887777      -0.03923261
C        2.30964188       0.39425274       1.12143483
C        2.64035532       0.97828416      -0.23028868
C        3.27650012       0.00091002      -1.22612683
O        3.56605404       0.56475252      -2.46996349
C        4.24570383      -1.04023160      -0.66361430
O        3.12742103      -1.90675083      -0.32359460
C        2.13180073      -1.04599236      -0.94387124
H       -0.38844058       0.80348700       0.68310957
H       -0.31724465       0.62875989      -1.08995479
H       -0.55467921      -0.80133356      -0.08711702
H        1.82551720       1.09674817       1.80328821
H        3.02796936      -0.27085771       1.59268811
H        2.74077460       2.04017404      -0.40463095
H        3.24241512      -0.08997431      -3.10891085
H        4.90602053      -1.48131646      -1.42200700
H        4.83145530      -0.73421372       0.21268356
H        1.52498490      -1.62194151      -1.64812007
