19
Properties=species:S:1:pos:R:3 Energy:=T 2798.8085243=T pbc="F F F"
C       -1.15802148      -1.02930833      -0.20840919
C       -0.34594460       0.25545681      -0.27641359
C        0.97727501       0.47194141       0.49237516
C        0.55677063       1.63127540      -0.43931932
O        0.21599030       0.69856709      -1.56499058
C       -0.92266956       1.69384326       0.06840785
C       -1.21251565       2.07876667       1.49506606
C       -2.37431195       1.53296922       2.21241300
O       -2.42776017       2.83814007       1.64016206
H       -1.22250990      -1.35737702       0.83164454
H       -2.16862216      -0.83879809      -0.57848422
H       -0.70008303      -1.81638204      -0.81326459
H        0.91341151       0.58246945       1.57415358
H        1.81412502      -0.13488592       0.14706534
H        1.15510039       2.48222200      -0.77121099
H       -1.66010308       2.09719301      -0.62576296
H       -0.36377086       2.48438040       2.04689732
H       -2.90170670       0.73568283       1.69680004
H       -2.36601424       1.46502380       3.29590892
