19
Properties=species:S:1:pos:R:3 Energy:=T 1257.2734788=T pbc="F F F"
C       -0.41378059      -0.36259469       1.36486849
C       -0.24672909       0.80470281       0.41091688
O       -1.10804098       1.65842905       0.34299415
C        1.06796736       0.89661671      -0.37842211
C        1.00875287      -0.00425169      -1.59410958
O        1.43737961      -1.14318616      -1.59157173
C        0.45479084       0.70618239      -2.77997091
C        1.44165668       1.47200787      -3.62828350
C        0.75334352       0.27498706      -4.20793096
H       -0.09485530      -0.02241954       2.35794005
H       -1.46815707      -0.64024265       1.37947496
H        0.17200249      -1.24322251       1.09668332
H        1.17920813       1.94985644      -0.62648841
H        1.94493553       0.59507658       0.19512447
H       -0.51710361       1.16092691      -2.64485299
H        1.18147085       2.47799061      -3.92628670
H        2.47752177       1.33950634      -3.34037969
H       -0.06856226       0.42049762      -4.90021378
H        1.30756995      -0.65042212      -4.30729600
