19
Properties=species:S:1:pos:R:3 Energy:=T 1716.6072685=T pbc="F F F"
C        1.37148731      -0.28943799       0.95993926
C        0.67612005       0.01340792      -0.37207959
C        1.56028969      -0.48985961      -1.48060600
C        1.31853742      -1.84217651      -2.11702156
C        1.49197686      -0.68148266      -3.05183922
C        2.93836357      -0.19067161      -3.18406188
O        3.06423256       0.97831897      -3.96911695
C        2.99024789      -0.02803804      -1.65904950
O        3.86656815       0.33214675      -0.91143659
H        1.67922067      -1.34292150       0.98089230
H        2.27711657       0.32417730       1.00910894
H        0.75910050      -0.07152275       1.84084542
H       -0.30980892      -0.44868753      -0.45916452
H        0.52230146       1.09492480      -0.46321574
H        2.06398992      -2.63686669      -2.07558651
H        0.29117092      -2.19512549      -2.03644913
H        0.81730792      -0.49205371      -3.87117525
H        3.62142290      -0.96557996      -3.55289127
H        3.50674441       1.64754936      -3.42677275
