19
Properties=species:S:1:pos:R:3 Energy:=T 794.4093792=T pbc="F F F"
O        1.80805343       0.17426408      -0.01951673
C        0.40749014       0.39243221       0.05101935
C       -0.11127644       1.09734215      -1.19638180
C       -0.10596915       0.26660916      -2.56258338
C       -0.62878462       1.31737343      -3.53117389
C       -1.68561555       1.82088428      -2.87907929
C       -1.66329352       1.07760079      -1.53810652
C       -1.45853665      -0.36553627      -2.11601272
O       -1.31520867      -1.45773449      -1.22360044
H        2.00947643      -0.45918040      -0.71675688
H       -0.13197841      -0.54244652       0.21720198
H        0.28446471       1.01090666       0.94598325
H        0.36898987       2.07887944      -1.27727530
H        0.74383953      -0.35475130      -2.84415311
H       -0.20523899       1.59664746      -4.48759459
H       -2.38719124       2.59034551      -3.17736752
H       -2.41971271       1.30649633      -0.78526606
H       -2.14063542      -0.61901503      -2.93729588
H       -2.17741278      -1.82385750      -0.98503091
