19
Properties=species:S:1:pos:R:3 Energy:=T 566.5411322=T pbc="F F F"
O        1.48831237       0.83072998       0.24699047
C        0.44384691      -0.07482462       0.55627168
C       -0.79533476       0.65130460       1.03050430
O       -1.47903881       1.20576328      -0.13143983
C       -2.70500160       0.47504760       0.13800754
C       -3.79981304       1.38988767       0.70609655
C       -3.81696729       1.06146081       2.18256711
C       -2.85581605       0.20729047       2.54004789
C       -2.04556625      -0.20257057       1.35294306
H        1.07225156       1.58536612      -0.20133742
H        0.15497456      -0.67467720      -0.31873365
H        0.80953379      -0.75798313       1.33550951
H       -0.53704094       1.42018053       1.77492186
H       -3.00818296      -0.11767697      -0.72945175
H       -3.49222792       2.42406929       0.51631686
H       -4.77518433       1.20973453       0.23286042
H       -4.56604381       1.47364139       2.85132514
H       -2.67321746      -0.15852035       3.54514260
H       -1.86533395      -1.27369367       1.26608784
