19
Properties=species:S:1:pos:R:3 Energy:=T 923.2519516=T pbc="F F F"
C       -0.68339465       2.47304638       0.39130580
C       -0.96730010       1.04592336       0.00024193
C       -1.74298233       0.08541788       0.96257802
C       -1.12204768      -1.04463132       0.09841489
C       -1.69206253      -0.82362197      -1.31877430
C       -1.62312571       0.73041978      -1.37283909
O       -2.87522479       1.36159033      -1.53571486
C        0.07210848      -0.09173875      -0.00153384
O        1.26247396      -0.17995997       0.10407783
H       -0.19575354       2.51634778       1.36934216
H       -0.04176814       2.97284439      -0.33820771
H       -1.60386743       3.06369959       0.46355589
H       -1.29279342       0.11565585       1.95571804
H       -2.84008468       0.15514794       1.01630772
H       -1.04450469      -2.07560196       0.44967581
H       -1.05240720      -1.29539249      -2.07427470
H       -2.71147362      -1.19889669      -1.43547941
H       -1.01761725       1.08919650      -2.21007232
H       -3.41779515       1.14904396      -0.76299123
