19
Properties=species:S:1:pos:R:3 Energy:=T 1544.9110349=T pbc="F F F"
O       -0.67246748      -0.23754384      -2.43555684
C        0.64969423      -0.27979270      -1.92767616
C        1.25953884      -1.61151644      -2.35827427
C        2.48737302      -2.11079369      -1.57368765
C        3.48732501      -1.06181064      -1.15632725
C        3.21962479      -0.13906236      -0.22147830
C        1.87137086       0.01417672       0.37473713
O        1.15033301       1.21881091       0.01701639
C        0.62557694      -0.04768976      -0.42432600
H       -1.03993574       0.60633003      -2.14355483
H        1.23881342       0.53217836      -2.37453585
H        0.50148985      -2.39366606      -2.28722191
H        1.49650192      -1.51520968      -3.41970803
H        2.10340476      -2.64396127      -0.69151349
H        2.98303285      -2.86534845      -2.18682756
H        4.50925683      -1.15372335      -1.51032967
H        4.00922624       0.46039179       0.23575589
H        1.80858098      -0.18714320       1.44822292
H       -0.28350992      -0.36393519       0.08929535
