19
Properties=species:S:1:pos:R:3 Energy:=T 1484.8042135=T pbc="F F F"
C        1.31586509      -2.54041843      -5.12239925
C        1.74702637      -2.76201245      -3.65933728
C        1.03533714      -1.86351265      -2.64744229
C        1.35922744      -0.37160580      -2.73489905
C        2.62383698      -0.23314764      -1.89831082
O        2.92744917      -1.49584300      -1.36875935
C        1.59885135      -1.97025775      -1.21920310
O        0.91250399      -0.95272908      -0.50326224
C        1.28314942       0.13406604      -1.31191606
H        1.86092425      -3.21390846      -5.79928408
H        0.24157878      -2.73129850      -5.26144690
H        1.52108582      -1.50707300      -5.42769301
H        1.55849861      -3.80465933      -3.37178453
H        2.82224807      -2.58998374      -3.54501371
H       -0.03617797      -2.07460560      -2.61223074
H        1.11654596       0.23644260      -3.59208314
H        3.46391143       0.40817200      -2.12276924
H        1.56835906      -2.92955180      -0.70394131
H        0.97944900       1.11119651      -0.96545422
