19
Properties=species:S:1:pos:R:3 Energy:=T 628.5089364=T pbc="F F F"
C       -3.02050804      -0.11142322       1.23887424
C       -2.10029879      -0.05544541       0.02698551
C       -0.89392391      -1.06304755       0.04375298
C        0.05412042       0.13046695      -0.08694010
O        1.24604314       0.24697008      -0.09550807
C       -1.09750203       1.14467305      -0.01615111
O       -1.27876692       1.89088408      -1.18683954
C       -1.96958731       1.08563964      -2.13539991
C       -2.80933163       0.06297767      -1.33595530
H       -3.59159465      -1.04828069       1.22428653
H       -2.46070460      -0.06342949       2.17873011
H       -3.75449219       0.70308566       1.23882909
H       -0.78826375      -1.55905032       1.01507566
H       -0.83242314      -1.83565023      -0.73025902
H       -1.04925984       1.82967137       0.83667956
H       -2.57461862       1.75009098      -2.75853616
H       -1.23713707       0.61212482      -2.80345497
H       -3.82310466       0.46073384      -1.19570394
H       -2.92388824      -0.88752164      -1.87080626
