19
Properties=species:S:1:pos:R:3 Energy:=T 35.0866636=T pbc="F F F"
C        1.54912048      -0.09162283      -0.12899297
C        0.09562694      -0.10026174      -0.03190163
C       -1.10689054      -0.10295116       0.06511245
C       -2.54670794      -0.09903799       0.16855399
C       -3.09816707       0.87208017      -0.90612324
O       -3.53312018       0.55923526      -1.98481920
C       -3.19484794       0.36652162       1.49997672
C       -4.69800333       0.39033376       1.23574013
O       -3.01116886      -0.47601902       2.61381406
H        2.00709169      -0.47350149       0.78568520
H        1.91224979      -0.74180760      -0.93045684
H        1.92955411       0.92097474      -0.30915312
H       -2.96404017      -1.09033495      -0.07577526
H       -3.23978248       1.91170170      -0.51031698
H       -2.80013347       1.37568849       1.73144891
H       -5.21066324       0.80173753       2.10290776
H       -4.96619284       0.93344457       0.32351856
H       -5.00895038      -0.64975698       1.10006394
H       -2.15304654      -0.91034390       2.54162686
