19
Properties=species:S:1:pos:R:3 Energy:=T 1181.7357244=T pbc="F F F"
C       -0.17487992      -0.18326721      -0.29472593
C        1.33667171      -0.02451331      -0.20149508
C        1.81225749       1.37098314       0.19186363
O        3.26243175       1.21879605       0.08559367
C        3.16153231       0.45059690       1.28202831
C        1.90750115       1.18508760       1.75095907
O        1.21972820      -0.01493608       2.09351794
C        2.03553816      -0.63217940       1.03362064
C        2.26692706      -2.09565033       1.27092621
H       -0.65735492       0.25658689       0.58301319
H       -0.53306026       0.34168818      -1.18850650
H       -0.46956929      -1.23677506      -0.37972501
H        1.83192128      -0.35747939      -1.12135233
H        1.42761683       2.27477556      -0.28079596
H        4.08005390       0.23980803       1.82185224
H        1.81629490       2.02074081       2.43863755
H        2.68446436      -2.21470165       2.27645040
H        1.33094050      -2.65676706       1.19341440
H        2.97183436      -2.53043355       0.55359350
