19
Properties=species:S:1:pos:R:3 Energy:=T 2055.4024978=T pbc="F F F"
C        0.02577908       0.07236823      -0.00141448
C        1.52447056      -0.12492466       0.07604370
C        2.23533471      -1.44595175      -0.22730868
O        3.11485853      -0.76444162      -1.16931824
C        2.37543779       0.47515079      -1.09513482
C        2.88305852       1.55428299      -0.15940443
O        2.77755519       2.87889801      -0.55657595
C        3.75278240       1.02157116       0.95487104
C        2.24806541       0.83121460       1.04880086
H       -0.46281076      -0.21816192       0.93553264
H       -0.16674755       1.13675778      -0.17607292
H       -0.41337263      -0.50826641      -0.81907462
H        2.77672187      -1.97505810       0.56687745
H        1.57084249      -2.14313697      -0.75381446
H        1.97640990       0.78810832      -2.06235197
H        3.60674903       3.32619555      -0.35784186
H        4.41408481       0.17217847       0.81406551
H        4.14020706       1.81576635       1.59249682
H        1.71781212       1.21065990       1.91531356
