19
Properties=species:S:1:pos:R:3 Energy:=T 2210.5368390=T pbc="F F F"
C        1.44072833      -0.23968883       1.10608065
C        1.00241585       0.19309172      -0.30616956
C        1.79833308      -0.47009904      -1.42040760
C        1.56730602      -1.99109281      -1.56104938
C        1.93487530      -2.29593177      -2.96924271
O        2.04764379      -1.10884385      -3.67812548
C        1.14859967      -0.41875871      -2.82859135
C        0.27304965      -1.58713779      -2.31166687
O       -0.92378921      -1.32374247      -1.75021040
H        1.22834773      -1.30626443       1.24883675
H        2.52103707      -0.07533629       1.20697429
H        0.90677562       0.33747973       1.87595965
H       -0.05940339      -0.02769777      -0.43761800
H        1.08044929       1.27545405      -0.43947863
H        2.83850777      -0.15138120      -1.45312886
H        1.77419566      -2.73741194      -0.79999687
H        2.25945407      -3.21616714      -3.42311879
H        0.77767520       0.50674787      -3.25367381
H       -1.60554222      -1.91805120      -2.10006114
