19
Properties=species:S:1:pos:R:3 Energy:=T 1724.5747493=T pbc="F F F"
C        5.26236981      -0.46188784      -0.52238407
C        3.79491567      -0.21873661      -0.32598573
O        3.57222111       1.02082000       0.30102130
C        2.22412990       1.41136460       0.12818232
C        1.52309303       0.09516743      -0.19285086
C        0.03384055       0.12606748      -0.43226617
O        1.84184798      -0.80825874       0.90683239
C        2.91024157      -1.36498791       0.16860259
C        2.57314681      -0.65841708      -1.11058647
H        5.74115295      -0.52009624       0.46108726
H        5.47418229      -1.39719297      -1.05756115
H        5.73603506       0.36939145      -1.05601040
H        1.86525081       1.87284344       1.05693785
H        2.12311848       2.16684126      -0.66949263
H       -0.47519946       0.36182198       0.50940076
H       -0.27738766       0.87642684      -1.17334559
H       -0.28947630      -0.86373562      -0.77753014
H        3.25527435      -2.36119037       0.43154683
H        2.50467331      -0.88040258      -2.16460847
