19
Properties=species:S:1:pos:R:3 Energy:=T 2164.2186125=T pbc="F F F"
C       -0.77715132       0.12535855       2.29787325
C       -0.28150456      -0.83167218       1.24333824
C       -1.22645698      -1.72100554       0.34682404
C        0.04294200      -1.84516257      -0.56232815
C        1.00215762      -2.58689561       0.37148461
O        2.09717663      -1.73665744       0.96270839
C        0.76955005      -1.87228544       1.63765100
C        0.27338835      -0.35251986      -0.14384236
O        1.51160214       0.30477329      -0.28214448
H       -1.25510428      -0.40159374       3.13224878
H        0.03132749       0.71959997       2.73691724
H       -1.49955997       0.83282994       1.87864708
H       -1.63255334      -2.63503211       0.79905419
H       -2.03671191      -1.14714812      -0.10290953
H        0.02589567      -2.12482112      -1.61694951
H        1.32297385      -3.61059246       0.18882840
H        0.85151241      -2.22458360       2.66157233
H       -0.45112395       0.30714260      -0.61748698
H        2.20315048      -0.23375370       0.17938267
