19
Properties=species:S:1:pos:R:3 Energy:=T 70.9770647=T pbc="F F F"
C       -2.94035363       4.54362025       2.61488699
C       -2.14130494       4.10158869       1.40092017
O       -1.53183581       2.83935647       1.71324054
C       -0.89419049       2.18054826       0.60331660
C       -0.21582155       0.93217314       1.13349869
C        0.25901000       0.01650139       0.03373532
O       -0.22822830      -1.06793319      -0.17286537
C       -1.12070738       5.06198851       0.93149557
C       -0.29562214       5.46448414       0.14866999
H       -3.52381688       3.68591669       2.96160487
H       -2.35225461       4.88307902       3.47113910
H       -3.64714244       5.33905833       2.35708467
H       -2.82928770       3.94654344       0.56370411
H       -1.65948801       1.97480298      -0.16978160
H       -0.15110524       2.82920359       0.10291985
H        0.62367381       1.22078583       1.76661527
H       -0.94066589       0.40139864       1.74483172
H        1.04378094       0.41507349      -0.65102853
H        0.33039022       5.76132107      -0.65207885
