19
Properties=species:S:1:pos:R:3 Energy:=T 1331.2778501=T pbc="F F F"
O       -0.39114476       4.95460553       0.20745297
C       -0.26890830       4.16646143      -0.98162248
C       -0.97017482       2.85980597      -0.66547665
O       -0.51903833       2.52574440       0.68667037
C       -0.61613511       1.17324467       1.05346205
C       -0.60172218       0.95358946       2.54159121
C       -1.87846596       0.73905076       1.77614070
C        0.00250198       0.18134066       0.17874159
C        0.46638080      -0.26176098      -0.84022667
H       -0.46624755       4.27471771       0.89815816
H       -0.70815121       4.68355329      -1.84055184
H        0.78629745       3.97293770      -1.21667771
H       -2.06031142       2.97280978      -0.59537218
H       -0.73383263       2.08245880      -1.40270505
H       -0.09985051       0.10754160       3.00338884
H       -0.51686575       1.90819242       3.04506294
H       -2.24555334      -0.27682207       1.64724357
H       -2.58491635       1.55321592       1.81873539
H        0.79569688      -0.71279720      -1.74490542
