19
Properties=species:S:1:pos:R:3 Energy:=T 1820.0112867=T pbc="F F F"
C       -2.75188769       2.63043583       1.66021360
C       -2.55050480       1.14096284       1.69564107
C       -3.40060529      -0.00637792       1.26140361
O       -3.23559704      -1.12417633       2.09829245
C       -2.04171340      -0.94465064       2.87037946
C       -1.39570275       0.33203012       2.33787909
C       -0.84644537       0.03432538       0.91166072
O        0.09415329       1.00905091       0.49289896
C       -2.23005297       0.36617910       0.36171304
H       -2.67961996       3.07998245       2.65776623
H       -1.97187113       3.06149983       1.01926004
H       -3.73339552       2.87507013       1.23345521
H       -4.42268456       0.11652444       0.89634581
H       -2.29020816      -0.88535939       3.93589456
H       -1.40548061      -1.82918716       2.72590782
H       -0.69576237       0.81790916       3.02070409
H       -0.51507959      -0.99697378       0.74586812
H        0.93812200       0.78608923       0.91687116
H       -2.42682413       0.58135587      -0.68467516
