19
Properties=species:S:1:pos:R:3 Energy:=T 81.5827495=T pbc="F F F"
C        1.27389694      -3.67453073       0.18678882
C        1.38585781      -2.19645404      -0.22257559
C        1.88641168      -1.27056353       0.90116543
O        1.96201980       0.04736847       0.42078464
C        2.51116285       0.90893617       1.39005266
C        2.56143145       2.23587018       0.79289361
C        2.31727684       3.21309667       0.13970186
C        2.33615537      -1.98339536      -1.37591861
O        3.40137050      -2.54809898      -1.42350965
H        0.57493138      -3.76848922       1.02982294
H        0.88488876      -4.27954063      -0.64524805
H        2.21716187      -4.13673188       0.50884156
H        0.38142341      -1.86407269      -0.51837904
H        1.19403966      -1.29964362       1.75441741
H        2.87398713      -1.56973965       1.27801943
H        1.90313554       0.91646579       2.30926637
H        3.52133238       0.58403841       1.68042764
H        2.13212800       4.12480091      -0.36704502
H        1.96318834      -1.37845643      -2.23623495
