19
Properties=species:S:1:pos:R:3 Energy:=T 1968.6757604=T pbc="F F F"
C        5.20684577      -2.75241704      -1.00609419
C        3.94669359      -2.06433929      -0.57786203
O        2.76832043      -2.90580511      -0.40081280
C        2.51722383      -1.48389599      -0.11462921
C        1.10789541      -1.22047313       0.32750229
O        0.12501871      -1.73524354      -0.55471236
C        3.81062976      -1.08790155       0.62926457
C        4.04093895       0.13786528      -0.26350328
C        3.33047876      -0.80746563      -1.24362496
H        5.52560839      -3.44894297      -0.22509954
H        5.03862884      -3.29281506      -1.94282541
H        5.99440488      -2.00984032      -1.15173187
H        0.97549609      -1.66624721       1.32131291
H        0.98839343      -0.13436826       0.42756856
H        0.59442368      -2.12176983      -1.31168726
H        4.07698169      -1.24431023       1.66353781
H        3.48979527       1.04671296       0.01444732
H        5.08048543       0.40461162      -0.48900013
H        3.06541661      -0.65509638      -2.27939151
