19
Properties=species:S:1:pos:R:3 Energy:=T 52.4752240=T pbc="F F F"
C       -3.43577176       0.51415799       4.75107720
O       -3.88969195       0.43698539       3.42017230
C       -2.90083904       0.09326210       2.48961820
C       -3.10844045       0.82850086       1.16185383
C       -2.56657645      -0.09615607       0.08758677
O       -3.29555086      -0.89033185      -0.45779173
C       -1.11754503      -0.05347936      -0.09592435
C        0.08230052      -0.01245395      -0.24528103
C        1.54148691       0.09952338      -0.20391030
H       -3.63038944      -0.42442666       5.28767985
H       -2.34865269       0.70372960       4.79371636
H       -3.95111405       1.34771501       5.23540203
H       -1.90029211       0.32641058       2.87692117
H       -2.88323711      -0.98333485       2.31578674
H       -4.16884529       1.02088935       0.98588853
H       -2.55953976       1.77162250       1.15215826
H        1.85933815       1.01909048       0.30227945
H        1.97691279      -0.73525025       0.35370834
H        1.97031727       0.11451401      -1.20910208
