19
Properties=species:S:1:pos:R:3 Energy:=T 1369.8320996=T pbc="F F F"
O        1.06238433       0.24902377      -0.45171713
C        0.17854971      -0.14779316       0.26404245
C       -0.48627591       0.71362676       1.30409186
C       -1.11554833       1.97990042       0.70758030
C       -1.68289840       2.83544546       1.85358352
C       -2.40406366       2.01878415       2.91671875
C       -3.53876663       1.09767371       2.51872751
C       -2.21934444       0.52667202       2.96948303
O       -1.39517919      -0.11746175       2.02594892
H       -0.28036742      -1.14659079       0.18617840
H        0.31897014       1.06877576       1.96844315
H       -0.33584861       2.54789924       0.19200882
H       -1.88833086       1.73842664      -0.03487170
H       -0.86383127       3.39112901       2.32314513
H       -2.36413996       3.58518723       1.44094475
H       -2.46163586       2.50337716       3.88520688
H       -4.39435454       0.96650065       3.17318541
H       -3.77950932       0.97982182       1.47199903
H       -2.17404965       0.00795184       3.92638082
