19
Properties=species:S:1:pos:R:3 Energy:=T 571.2573464=T pbc="F F F"
C       -1.99278991      -0.13641278      -1.43153755
C       -0.65186955      -0.70335238      -1.95319740
C       -0.07923397       0.62422442      -2.50423965
C       -0.08140935       1.39259469      -1.15304540
O        1.16155111       1.17554662      -0.50902860
C        1.44730915      -0.21800158      -0.45843026
C        0.12001257      -0.98088161      -0.58075515
O       -0.68654042      -0.36095514       0.42735642
C       -1.27403225       0.68480331      -0.34784800
H       -2.53890237       0.46297914      -2.16381625
H       -2.65325683      -0.88855672      -1.00350223
H       -0.68735837      -1.56277161      -2.62232202
H        0.89441931       0.55167639      -2.99146746
H       -0.77970932       1.10250713      -3.19751534
H       -0.20646632       2.47522484      -1.22220298
H        2.16591419      -0.49709801      -1.23662763
H        1.88873156      -0.39586116       0.52728688
H        0.20524839      -2.04811272      -0.37589065
H       -1.87164746       1.32725690       0.30088298
