19
Properties=species:S:1:pos:R:3 Energy:=T 2179.2128196=T pbc="F F F"
C        4.84055593      -0.40738709       1.57635448
C        3.49491004      -0.46521941       0.92317272
O        2.72685134      -1.60392061       1.25173222
C        2.06460448      -0.37327532       1.44516352
C        1.37531919       0.15146771       0.15405274
C       -0.11644377       0.21766197      -0.04756914
C        2.32683691       1.33518270      -0.24517972
C        3.22001915       0.07755114      -0.49984677
O        2.02458653      -0.63960570      -0.88485984
H        4.81089432      -0.97055495       2.51320873
H        5.58174786      -0.86458009       0.91111284
H        5.17807711       0.61777203       1.78224776
H        1.68280023      -0.19062875       2.44948735
H       -0.58474573       1.02036795       0.53665517
H       -0.30425972       0.37969881      -1.11244985
H       -0.58995179      -0.72758405       0.23672050
H        2.01044414       1.83103138      -1.16872817
H        2.62358727       2.09117774       0.49678136
H        4.01109790       0.06728416      -1.25628753
