19
Properties=species:S:1:pos:R:3 Energy:=T 88.4881323=T pbc="F F F"
C        1.07710652      -0.55805050       0.26287778
O       -0.18750164      -0.41663983       0.87041078
C       -0.63702541       0.88704399       1.03091228
C       -1.68102351       0.88904149       2.13787416
C       -2.15848187       2.33147548       2.30922637
O       -1.48321480       3.27446955       1.96020261
C       -3.63413615       2.48734714       2.75489705
C       -4.08476273       1.34867184       3.56351138
C       -4.47538175       0.37220027       4.14028913
H        1.86165873      -0.07895914       0.86095958
H        1.22184354      -1.63516785       0.22852983
H        1.09667760      -0.12430834      -0.74789861
H        0.15902174       1.59973132       1.28192293
H       -1.12726547       1.26238177       0.12706700
H       -2.51517345       0.20199587       1.92638989
H       -1.28357522       0.53030328       3.09710207
H       -3.76738318       3.43698960       3.27730738
H       -4.19845426       2.53474495       1.81601537
H       -4.81594949      -0.53845200       4.55882356
