19
Properties=species:S:1:pos:R:3 Energy:=T 587.7838266=T pbc="F F F"
O        1.62387477       0.92875742      -0.01548767
C        0.35155914       0.31224970      -0.14843856
C        0.05735934       0.08310610      -1.61555567
C        0.30347436       1.25772181      -2.62153908
C       -1.22085652       1.60109070      -2.61404434
C       -1.48627158       0.22087190      -1.94085118
O       -2.32298175       0.19023963      -0.81474690
C       -1.82256021      -0.77254082      -3.00084058
C       -1.72212163      -1.92596367      -3.31706630
H        1.83161469       0.98224787       0.92743612
H        0.32706203      -0.64085433       0.40223113
H       -0.45306406       0.93057264       0.25516808
H        0.50983050      -0.84132721      -1.97629912
H        0.95157529       2.06394367      -2.28211846
H        0.65246610       0.89230028      -3.59009115
H       -1.45754647       2.43651763      -1.95178397
H       -1.71945682       1.77341132      -3.57365763
H       -3.24087832       0.15338064      -1.11422410
H       -1.76948796      -2.88423371      -3.77470178
