19
Properties=species:S:1:pos:R:3 Energy:=T 452.7404976=T pbc="F F F"
C        1.33825744       0.20548150       0.28706642
O        1.33500854       1.26991259       1.23657015
C        0.57230562       2.35538457       0.70908574
C       -0.86656781       2.38246178       1.27053503
C       -1.64860374       1.79786199       0.07999250
C       -1.22500236       0.33326759      -0.15500550
C        0.22156293       0.52422105      -0.71298187
C        0.28657153       2.06163873      -0.79544150
O       -1.04874149       2.49109965      -1.03470201
H        2.31060531       0.17846533      -0.22469644
H        1.22840557      -0.75138063       0.80332524
H        1.12818266       3.27446907       0.92009397
H       -0.93287500       1.82479977       2.20861238
H       -1.18454598       3.41544584       1.44033523
H       -2.72216625       1.98357713       0.08888642
H       -1.23527837      -0.26135158       0.76345191
H       -1.88459597      -0.15078446      -0.88852642
H        0.37932404       0.00155127      -1.65989392
H        0.97258331       2.49683884      -1.52374716
