19
Properties=species:S:1:pos:R:3 Energy:=T 1689.3184319=T pbc="F F F"
C        0.48915959       0.84281437      -0.18076823
C        1.01953479      -0.54826700       0.07236954
C        2.20214551      -0.62389582       1.09116391
C        3.08300892      -1.71074615       0.52094965
C        3.89156545      -1.48701643      -0.72208425
C        2.49840281      -1.99403968      -0.87196580
C        2.20926905      -3.36978934      -0.25996291
O        2.90114160      -3.04909392       0.98417768
O        1.44865292      -1.14016134      -1.19103303
H        0.11141399       1.26369572       0.75634297
H        1.29409923       1.46757177      -0.56923934
H       -0.32117526       0.78353593      -0.90966904
H        0.21820188      -1.19402554       0.43888382
H        2.75355537       0.31546232       1.17711849
H        1.84133199      -0.89196747       2.08751686
H        4.03550262      -0.46305229      -1.02795992
H        4.68615479      -2.19166562      -0.90720605
H        1.13206803      -3.47683136      -0.12787748
H        2.62184623      -4.24366792      -0.76505601
