19
Properties=species:S:1:pos:R:3 Energy:=T 870.6698106=T pbc="F F F"
C       -0.21082455       0.77525930      -2.52567282
C       -1.25583460       0.56851690      -1.43498761
C       -2.53821785       1.22738344      -1.90659309
O       -1.47304171      -0.85651157      -1.26328706
C       -1.08948609      -1.05805424       0.08985925
C       -1.69867253       0.12999249       0.88393069
C       -0.76700022       0.98030193      -0.01521149
C        0.19304967      -0.20716624       0.19602348
O        1.25998449      -0.36274003       0.70953620
H        0.69257236       0.19520152      -2.35757439
H       -0.65611785       0.44107643      -3.46868752
H        0.03840406       1.83891679      -2.60177415
H       -3.37863375       1.04625076      -1.23298530
H       -2.37458446       2.29966900      -2.01462464
H       -2.77364259       0.81946181      -2.89100050
H       -1.18041496      -2.10328081       0.38217551
H       -2.78249565       0.27588483       0.85527730
H       -1.35592485       0.09871560       1.91021966
H       -0.46785862       2.01346171       0.15944680
