19
Properties=species:S:1:pos:R:3 Energy:=T 1563.3516070=T pbc="F F F"
C        5.13174399      -1.55171634       0.10028978
C        4.21083339      -1.38818490       1.28321312
O        2.88183762      -1.94472536       1.20988535
C        3.02731154      -0.53671440       1.25428945
C        2.77687634       0.18609952       2.55592431
C        2.56932060       0.19447354       0.01581475
O        2.99961115       1.55858707       0.08208757
C        1.11662535       0.06588050       0.10433297
C       -0.07712621      -0.03734125       0.17812331
H        5.97139812      -2.19351613       0.36694043
H        4.60761744      -1.98304481      -0.75077595
H        5.55387322      -0.60137582      -0.23630906
H        4.64535974      -1.47908666       2.27791761
H        2.88843499      -0.52066733       3.37565187
H        3.52193120       0.97536182       2.69491894
H        1.79808026       0.64934132       2.61400014
H        2.95696458      -0.22665841      -0.92159702
H        3.62750890       1.57154627       0.80869498
H       -1.12367339       0.02714929       0.31650550
