19
Properties=species:S:1:pos:R:3 Energy:=T 183.5500878=T pbc="F F F"
C        0.33245410       0.22350835       0.37675177
C        0.97893166      -0.37703937      -0.86038169
O        2.38158656      -0.51702864      -0.58990157
C        2.70074078      -1.91028693      -0.66115857
C        3.22206095      -2.22013951      -2.07166538
C        2.06180369      -2.40531343      -3.03955161
C        0.82056119      -2.12158191      -2.68638394
C        0.57853317      -1.84180560      -1.21744338
O        1.49913098      -2.62942238      -0.46061966
H        0.71079037      -0.32637220       1.23464745
H        0.64875633       1.26365649       0.49673516
H       -0.76236064       0.17047090       0.35650073
H        0.84068217       0.26327765      -1.74286876
H        3.40646339      -2.14911185       0.14236942
H        3.81082389      -1.34393681      -2.35966829
H        3.87581953      -3.10520590      -2.08711014
H        2.29970605      -2.76528939      -4.03957274
H        0.00186749      -2.08849837      -3.39624594
H       -0.44103297      -2.08517151      -0.90092229
