19
Properties=species:S:1:pos:R:3 Energy:=T 1603.5046939=T pbc="F F F"
O        1.13757876       0.25763117      -1.00714048
C       -0.01324247       0.08136265      -0.15275963
C       -1.23984506      -0.19648203      -1.01959848
C       -2.46376127      -0.65562271      -0.26357641
C       -3.57504803      -0.01072771      -0.63616182
C       -3.32308892       1.00867133      -1.71778527
C       -1.79308391       0.99980407      -1.80819209
C       -0.99565494       1.56290684      -2.87903301
O       -1.09262246       2.25145929      -1.61710298
H        1.69379424       0.94140380      -0.61253671
H        0.14239675      -0.78993015       0.50023336
H       -0.15656939       0.96406515       0.48997756
H       -0.91501779      -0.96767022      -1.72935351
H       -2.43590915      -1.46551067       0.45570258
H       -4.56695071      -0.22305243      -0.25521535
H       -3.78395399       0.72690304      -2.67955256
H       -3.71332320       2.00395354      -1.46964396
H       -0.05137747       1.05833422      -3.06899937
H       -1.44062117       2.07131179      -3.73314212
