19
Properties=species:S:1:pos:R:3 Energy:=T 1517.9352352=T pbc="F F F"
C        2.30217799      -0.42837263      -0.89057009
C        1.10832601       0.51155578      -0.81644291
C        0.93500936       1.36802728       0.43930117
C        1.95835812       1.64381391       1.52105433
O        3.20599276       0.98423909       1.34932817
C        3.16273529      -0.42335637       1.50884110
C        2.26238536      -1.12339131       0.49451930
O        0.89743668      -1.07344225       0.93562465
C        0.27690869       0.01968302       0.31331146
H        2.23971618      -1.13637301      -1.72535172
H        3.24272318       0.12361912      -0.97257528
H        0.66055689       0.90171452      -1.72428834
H        0.22887126       2.19130439       0.31127119
H        2.20740703       2.70763439       1.54773765
H        1.52293490       1.36514026       2.49128533
H        4.19519802      -0.75176155       1.37936053
H        2.83288004      -0.70185089       2.52066846
H        2.53455747      -2.18317963       0.46824108
H       -0.80790532      -0.04684362       0.34051407
