19
Properties=species:S:1:pos:R:3 Energy:=T 1025.8966903=T pbc="F F F"
C       -4.24147846      -0.94178827      -1.32249553
C       -2.82092459      -0.36959137      -1.27732636
C       -1.65226352      -1.40784103      -1.34569719
C       -1.24330719      -1.11030723       0.12698431
C       -2.25966832       0.10446057       0.09009649
C       -1.03924642       1.07231217      -0.00619508
O       -0.88454905       1.96032556       1.08979539
C       -0.08593020      -0.12832905       0.11362367
O        1.04818428      -0.16366115       0.51798691
H       -4.37693993      -1.74769904      -0.59166223
H       -4.98467287      -0.15999860      -1.12683768
H       -4.46315727      -1.34431021      -2.31996979
H       -2.72958816       0.41358333      -2.03952407
H       -1.94109899      -2.43767740      -1.56751867
H       -0.86053641      -1.09418065      -2.03106924
H       -1.21596822      -1.91213257       0.86202705
H       -2.93950249       0.36279802       0.90025108
H       -0.97624518       1.62462176      -0.95577526
H       -0.00196781       1.76473544       1.45864590
