19
Properties=species:S:1:pos:R:3 Energy:=T 1330.7730969=T pbc="F F F"
C        3.90715771       1.61936057       0.35080643
C        2.56331959       1.46688315      -0.34157017
O        2.01305938       2.39227482      -0.89624936
C        1.99010400       0.05956719      -0.35235622
C        0.69359399      -0.32379887      -1.03063219
C        0.73138909      -0.31922044       0.48448740
C        0.02032653       0.77796207       1.27834626
C        0.50171583      -1.67226950       1.15737268
O        0.91686143      -2.76393161       0.86376206
H        3.92556009       1.11261912       1.32303679
H        4.68665932       1.13371505      -0.24777066
H        4.17051986       2.66913544       0.50979783
H        2.75506191      -0.70975445      -0.44992569
H        0.01582728       0.35562204      -1.53689113
H        0.79694262      -1.28318296      -1.51469730
H        0.64694129       1.18302125       2.08320999
H       -0.27868663       1.59207852       0.62420444
H       -0.87227788       0.34542938       1.74638041
H       -0.19854306      -1.57146084       2.00725778
