19
Properties=species:S:1:pos:R:3 Energy:=T 2751.8666321=T pbc="F F F"
C        0.92267302      -1.87482202       1.36450178
C        2.37108364      -2.00159972       0.93368442
C        2.68427316      -2.56949996      -0.42875661
C        2.98199533      -3.39794206       0.77537258
C        4.42941729      -3.58015817       1.10037032
C        4.97108671      -4.94449079       0.97673324
O        4.66743612      -4.37870610       2.25885115
C        3.25297848      -0.96292042       1.54073528
O        3.97797437      -0.22724617       0.91214180
H        0.85236254      -2.01423142       2.45258319
H        0.54254421      -0.87315897       1.12248030
H        0.30530486      -2.62106055       0.85244904
H        1.82950998      -2.87595462      -1.01744485
H        3.53586028      -2.15316473      -0.95613754
H        2.26764134      -4.17636305       1.04230368
H        5.08323820      -2.70303670       1.01300663
H        4.26949483      -5.68169429       0.58588290
H        6.02064032      -5.07280065       0.74235472
H        3.00306555      -0.74453790       2.60245772
