19
Properties=species:S:1:pos:R:3 Energy:=T 1582.5077743=T pbc="F F F"
C        0.15800382       0.40928701      -0.00132739
C        1.11563824      -0.77105046       0.03534096
O        2.25811270      -0.71731112       0.87166895
C        2.47156365      -0.74120580      -0.56611562
C        2.97302304      -2.02999159      -1.21319054
O        4.25818550      -1.91448197      -1.76509072
C        4.48835660      -0.82210778      -2.63036078
C        3.74901408       0.43613159      -2.23702185
C        2.94429063       0.49654370      -1.17505288
H       -0.68928652       0.21342726       0.65654692
H        0.62051352       1.36007435       0.27640596
H       -0.24163276       0.54003820      -1.00829851
H        0.64364241      -1.75719149       0.04315746
H        3.05770132      -2.80078541      -0.44391678
H        2.24700484      -2.40529056      -1.95897697
H        5.57592652      -0.65940929      -2.58065834
H        4.26993908      -1.09706705      -3.67809960
H        3.97150579       1.34521760      -2.79767790
H        2.56739703       1.44552397      -0.79003310
