19
Properties=species:S:1:pos:R:3 Energy:=T 31.1590737=T pbc="F F F"
C        5.04784584      -1.64874009      -2.92168352
C        4.60316964      -1.29580076      -1.51313752
C        4.80352677       0.17151938      -1.14518212
C        4.24731602       0.44912287       0.23766652
O        4.89282972       0.68415638       1.23303787
C        2.80307105       0.39270293       0.17493252
C        1.60071009       0.31793671       0.08119669
C        0.24317775       0.13188550      -0.52099146
O       -0.80848857       0.46813980       0.35095111
H        4.71891762      -2.66265709      -3.17199313
H        4.59337085      -0.96083275      -3.64213537
H        6.13574810      -1.58595782      -3.00884883
H        3.52192896      -1.47803909      -1.44744785
H        5.11274453      -1.92987779      -0.77483580
H        5.83336393       0.50012524      -1.21472918
H        4.18931322       0.74756345      -1.83322105
H        0.15545056       0.82450528      -1.36535195
H        0.19058068      -0.90811358      -0.89643537
H       -0.81470461      -0.14418757       1.09261886
