19
Properties=species:S:1:pos:R:3 Energy:=T 343.8019417=T pbc="F F F"
C        0.82642557      -0.05917661       0.84661325
C       -0.26346435       0.41425101      -0.15169437
C        0.61237179       1.28864170      -1.08815750
C        1.69513624       0.25535095      -1.45460631
O        1.15622299      -0.64123873      -2.43142430
C        0.45904736      -1.56963586      -1.61366302
C       -0.74657592      -0.83357333      -0.96751596
O        1.36121787      -1.93201256      -0.57854015
C        1.83927716      -0.65225013      -0.15176019
H        1.26446580       0.80104851       1.36714151
H        0.49567776      -0.79639370       1.57795139
H       -1.09869964       0.94876017       0.31306635
H        0.10308878       1.67560285      -1.97055800
H        1.05488481       2.12070675      -0.52720645
H        2.62118500       0.67411866      -1.84955366
H        0.22370360      -2.45843746      -2.20679131
H       -1.42665830      -0.50802290      -1.76311978
H       -1.26447472      -1.52922688      -0.29719719
H        2.85164825      -0.77702241       0.23353571
