19
Properties=species:S:1:pos:R:3 Energy:=T 1453.9001693=T pbc="F F F"
C       -0.97267306       0.81098074       0.17155795
C       -0.51438585       0.42754613      -1.20376532
O       -1.21584833       1.04528602      -2.24674856
C       -1.13355261       0.21187092      -3.41309539
C       -0.70163556      -1.21265249      -2.97630578
C       -0.16728578      -0.98404758      -1.57251752
C        0.94403171       0.06111341      -1.45119712
C        1.85294294       0.20564961      -0.28067690
O        1.73272601      -0.36149113       0.78347388
H       -0.46811964       0.18847045       0.90977591
H       -0.78175584       1.86543673       0.39100873
H       -2.04428526       0.62738667       0.25934945
H       -2.12082033       0.21624714      -3.88176969
H       -0.42402064       0.66023178      -4.12098777
H       -1.54351166      -1.91267127      -2.96147739
H        0.03720128      -1.63902572      -3.66450120
H       -0.25894291      -1.75724892      -0.81648279
H        1.47453388       0.31028032      -2.36964481
H        2.72029241       0.85780688      -0.49574550
