19
Properties=species:S:1:pos:R:3 Energy:=T 1827.1903992=T pbc="F F F"
O       -0.90003613      -1.54967087      -2.67403589
C       -1.00639925      -2.02922393      -1.36979322
C       -1.84440210      -3.26153816      -1.23067379
C       -0.34616582      -3.33282796      -1.02800763
C       -1.02309179      -1.06709681      -0.20308946
C       -2.14056746       0.00404322      -0.01609242
C       -1.05918317       1.09109457       0.21989609
C       -0.00051198       0.08125681      -0.24994720
O        1.14745647       0.12732256      -0.59289030
H       -0.13176380      -0.96066643      -2.69546429
H       -2.46739830      -3.33942159      -0.34641055
H       -2.28033362      -3.64703708      -2.14638142
H       -0.01666042      -3.40290635       0.00141120
H        0.30831546      -3.78223130      -1.76318054
H       -0.84779428      -1.63062405       0.71950977
H       -2.68512061       0.15577232      -0.95187997
H       -2.84207128      -0.16329947       0.80497635
H       -1.12238692       2.01767783      -0.35573993
H       -0.90934497       1.33983615       1.27486368
