19
Properties=species:S:1:pos:R:3 Energy:=T 1044.0483297=T pbc="F F F"
C       -2.61948728       2.26578935       1.59854090
C       -1.19653434       2.09664665       1.08114165
C       -0.92690716       3.06465853      -0.10921216
C       -1.38481687       1.90734311      -1.05100204
C       -1.09221995       0.90877140       0.09483490
O       -1.86625409      -0.26759514       0.39502054
C       -0.79500400      -1.15836157       0.01337604
C        0.15034428       0.03443145      -0.11654059
O        1.33196392       0.22498825      -0.08098510
H       -2.84462205       1.57384642       2.41229282
H       -2.72931959       3.28453712       1.97702172
H       -3.33572309       2.12327919       0.78445254
H       -0.44816873       2.11509767       1.87855349
H       -1.57309162       3.94059332      -0.09912380
H        0.11339126       3.37098071      -0.21878942
H       -2.45503894       1.96542778      -1.25367301
H       -0.83987146       1.76314039      -1.98544761
H       -0.55554191      -1.88910037       0.79076380
H       -1.02746889      -1.69401474      -0.91236523
