19
Properties=species:S:1:pos:R:3 Energy:=T 1484.8304607=T pbc="F F F"
C        0.16050050       0.14779763      -0.31355236
C        1.44013679      -0.23174244       0.38420652
C        1.25404873      -1.02681835       1.70590089
C        2.65875514      -1.42695267       2.26494507
C        3.76274707      -0.77702272       1.44446543
C        3.52390011       0.52824101       0.70245700
O        2.19703059       0.96053533       0.67227350
C        3.57720117      -0.77305366      -0.05586585
O        2.27022380      -1.02585526      -0.49465673
H       -0.40415019       0.85668922       0.30648145
H        0.39079791       0.64550862      -1.26520065
H       -0.44661396      -0.74090876      -0.52755110
H        0.72148775      -0.39805464       2.43125231
H        0.65419192      -1.92556620       1.51165855
H        2.73907826      -1.13553761       3.31671601
H        2.77240723      -2.51514344       2.22107102
H        4.78397565      -0.90354960       1.78669679
H        4.23752379       1.34763734       0.67369055
H        4.32837635      -1.14250320      -0.74528948
