19
Properties=species:S:1:pos:R:3 Energy:=T 1823.3469469=T pbc="F F F"
O       -2.06238152       3.46424767       2.80979641
C       -2.12359447       2.36893654       1.92396905
C       -2.85030369       2.63005305       0.60150752
C       -2.60015521       1.55994299      -0.43351501
C       -2.20061137       0.20896317       0.13982160
C       -0.85168161       0.48823816       0.84865602
O        0.25756904       0.09678761       0.05295705
C       -0.84365088       2.00184143       1.10410041
C       -1.52131135       2.57322555      -0.16513269
H       -1.30392339       4.02667292       2.59862723
H       -2.55661145       1.55251052       2.50820330
H       -3.70363012       3.28973442       0.50453500
H       -3.17908180       1.58989503      -1.35207706
H       -2.97506960      -0.14158657       0.83628679
H       -2.04461557      -0.55889784      -0.61917247
H       -0.74391275      -0.08723411       1.76997720
H        0.14621470       0.44123379      -0.84384277
H        0.12521540       2.37195390       1.44838553
H       -1.13157306       3.29979195      -0.86764281
