19
Properties=species:S:1:pos:R:3 Energy:=T 1340.1706214=T pbc="F F F"
C        0.06753249       0.06550560      -0.08704588
C        1.56283162      -0.05252653       0.00952318
C        2.19147848      -0.74820123       1.22347270
C        3.05423687       0.49766957       1.46653883
O        2.34451063       1.47931524       2.27943161
C        2.01499668       2.29312557       1.12030469
C        2.49359798       1.17911589       0.19864485
C        2.86747699       0.94848859      -1.27327850
O        2.21428375      -0.34878072      -1.25822195
H       -0.34493528       0.52124479       0.81640271
H       -0.20176818       0.70793225      -0.93157467
H       -0.37855342      -0.92759915      -0.20844419
H        1.51408562      -0.90417703       2.06437133
H        2.70586263      -1.66868511       0.95446585
H        4.10016259       0.39011226       1.75512032
H        0.94337365       2.53401806       1.08207810
H        2.60250022       3.22011698       1.08728674
H        2.35855827       1.64217696      -1.95114486
H        3.92389769       0.85873710      -1.54433122
