19
Properties=species:S:1:pos:R:3 Energy:=T 1233.3827716=T pbc="F F F"
O       -1.68608244       0.43645325       0.91654209
C       -0.42109230       0.27799783       1.32211558
C        0.12212310       0.54157225       2.69919642
C        1.53990858       1.05011399       2.30514384
C        1.92911161      -0.07148662       1.29575201
C        0.71622091       0.21498558       0.36025112
C        1.01935699       1.70317652       0.01761171
C        1.28303014       2.21245240       1.40758318
O        0.98646442       3.42642621       1.88519172
H       -2.23083607       0.42077765       1.71114531
H       -0.46911417       1.29646765       3.21774427
H        0.15357570      -0.38429379       3.28695192
H        2.21419633       1.28057571       3.12737901
H        2.88345518       0.07077659       0.77880374
H        1.93629707      -1.05883011       1.76835097
H        0.53083856      -0.44518408      -0.48453104
H        1.90990587       1.81870676      -0.61266286
H        0.16954141       2.21480962      -0.43445957
H        0.89147951       4.00436396       1.12009753
