19
Properties=species:S:1:pos:R:3 Energy:=T 670.7550106=T pbc="F F F"
C        3.76891573       0.96484261      -0.28143832
C        3.17002284       0.36438812      -1.54270054
O        3.82333586       0.00779137      -2.49930009
C        1.65572243       0.17096778      -1.57846054
C        1.22790526      -1.26994812      -1.98634847
C       -0.06658951      -0.94965050      -1.19174137
C        0.91101745      -0.20482017      -0.26145235
O        1.71332713      -1.25133024       0.28458581
C        2.03773993      -2.02164884      -0.89438069
H        3.86467410       0.19538900       0.48896521
H        4.74186726       1.40344203      -0.47799229
H        3.10398685       1.73869575       0.10626183
H        1.16375935       0.97271903      -2.13822157
H        1.21513813      -1.62625647      -3.01436290
H       -0.75605031      -0.25778197      -1.67430744
H       -0.60277055      -1.80606655      -0.76785786
H        0.60383815       0.53321793       0.48737411
H        3.11645062      -2.00207434      -1.08020774
H        1.72737963      -3.06832700      -0.76192584
