19
Properties=species:S:1:pos:R:3 Energy:=T 1967.8684220=T pbc="F F F"
O        0.35391354       0.29116313       0.42760406
C       -0.99758404      -0.04762401       0.66714086
C       -2.01839091       0.86690793       0.03314884
C       -3.52333705       0.69852129       0.29973906
C       -3.96743978      -0.00697587      -1.03438795
C       -3.08242532      -1.17755460      -0.51626714
C       -3.62994039      -0.75317554       0.86262299
C       -1.68174414      -0.51182780      -0.59258411
O       -0.81812334      -0.80403349      -1.67415889
H        0.33981855       0.80670874      -0.45655591
H       -1.10223516      -0.47829099       1.65031626
H       -1.73265402       1.81448023      -0.43126807
H       -4.10238320       1.52085350       0.73718456
H       -5.02166966      -0.23536409      -1.18424866
H       -3.52635387       0.37721634      -1.94056362
H       -3.14240938      -2.20521654      -0.85792207
H       -4.67931774      -1.03726289       0.95410451
H       -3.09451937      -1.06649605       1.75880388
H       -0.07178533      -0.18912129      -1.50014897
