19
Properties=species:S:1:pos:R:3 Energy:=T 750.2508940=T pbc="F F F"
O        1.47820129      -0.04328131      -0.22985732
C        0.28937740      -0.08614999      -0.02990843
C       -0.38389671       0.61196981       1.12350362
C       -0.99572471       1.94918098       0.70697737
C       -1.39789484       3.04956527       1.70834021
C       -0.13078423       3.38218628       2.51518634
C        0.86553307       3.43436900       1.32290515
C       -0.15724756       3.13384158       0.20570536
O       -1.26762593       3.99472559       0.60387801
H       -0.41100781      -0.37579894      -0.85130364
H       -1.19014788      -0.02143502       1.50448469
H        0.35796186       0.71326352       1.91536895
H       -1.80266467       1.76621549       0.00114841
H       -2.37679403       3.04674889       2.18384998
H       -0.22966432       4.36230489       2.98253220
H        0.12848902       2.65907898       3.29136343
H        1.27425405       4.43983250       1.17703123
H        1.70773096       2.74105325       1.39728186
H        0.11293530       3.23605923      -0.85093770
