19
Properties=species:S:1:pos:R:3 Energy:=T 3172.2058542=T pbc="F F F"
C       -1.05169328       2.69843796       3.56337991
C       -1.46477729       1.81277040       2.41660150
C       -2.71266060       0.95055691       2.46356494
C       -1.42595542       0.23731731       2.21268610
C       -0.92616053       0.39452029       0.76628192
O        0.34384889      -0.13651424       0.52628345
C       -0.91873656       1.91216579       0.99701132
C       -0.93996901       3.01648849       0.04265664
O        0.27980328       2.61283793       0.65942677
H       -0.03385014       2.45089665       3.89713293
H       -1.06119250       3.75839513       3.28565627
H       -1.72326349       2.54736165       4.41564827
H       -3.14583395       0.81607847       3.45016851
H       -3.44047361       0.94032198       1.65789147
H       -1.01391310      -0.50832667       2.87208323
H       -1.59677482       0.03061869      -0.02055224
H        0.95519458       0.53271015       0.86972759
H       -1.07092572       2.78709051      -1.01356957
H       -1.29094734       3.98554073       0.38158173
