19
Properties=species:S:1:pos:R:3 Energy:=T 625.0857485=T pbc="F F F"
O        0.13130098      -0.03420384       0.05709348
C       -1.07844897       0.67504609       0.14965242
C       -1.00833407       2.05915386       0.83285940
C       -2.40140982       2.22908032       1.36719057
C       -3.04732730       1.05112697       1.43581715
C       -2.17100711      -0.05864421       0.94448850
C       -2.77448538      -1.36704246       0.38669620
C       -2.16581730      -2.02742593       1.63221163
O       -1.51966230      -0.80667560       2.01731825
H        0.39039730      -0.28514499       0.95567671
H       -1.42943490       0.77222979      -0.88525755
H       -0.27244518       2.03087381       1.64922833
H       -0.69524521       2.85022261       0.14518339
H       -2.81846980       3.18370050       1.65459963
H       -4.05759676       0.90499577       1.79619168
H       -3.86113209      -1.40403390       0.30692349
H       -2.31591117      -1.67831148      -0.55329187
H       -2.87999448      -2.35169370       2.39422524
H       -1.44753668      -2.82755381       1.43847348
