19
Properties=species:S:1:pos:R:3 Energy:=T 1486.0114756=T pbc="F F F"
C        0.38735308       1.26065557      -0.59061802
C        1.73099924       0.58509235      -0.68519201
C        2.76643164       1.29924065      -1.55089840
O        4.06029058       1.00220847      -1.00956740
C        3.94017020      -0.11973627      -0.12617112
C        3.92425755      -1.43240974      -0.94929787
O        2.54359132      -1.80530302      -1.13164348
C        1.72479346      -0.91815367      -0.41459909
C        2.53437666      -0.03735212       0.48560044
H       -0.26867917       0.72803162       0.10945694
H        0.47528557       2.30524765      -0.25505931
H       -0.10182725       1.28706324      -1.57740111
H        2.71793985       1.01012240      -2.61227089
H        2.63400787       2.39154207      -1.49962435
H        4.76751657      -0.05978271       0.58165064
H        4.37860832      -1.27405171      -1.93207388
H        4.45831996      -2.24410157      -0.44443417
H        0.76485125      -1.34702871      -0.12481796
H        2.33256396       0.17798591       1.53029114
