19
Properties=species:S:1:pos:R:3 Energy:=T 1691.9017402=T pbc="F F F"
C       -0.98963809      -1.96698172       1.34047242
C       -0.93350983      -1.07993089       0.10122644
C        0.20765655      -0.00152742       0.03078468
O        1.40250033      -0.06477777       0.04562813
C       -0.76261108       1.12771453      -0.11760423
C       -1.84126010       1.11981710       0.95060491
C       -1.93837922       0.06895404      -0.10436965
C       -3.07411254       0.00550064      -1.09458709
O       -3.98826588      -1.04108455      -0.82343549
H       -0.19165424      -2.70516060       1.25449874
H       -0.84982829      -1.41012730       2.26846086
H       -1.93230911      -2.52287134       1.40781461
H       -0.88031980      -1.74303420      -0.77169540
H       -0.55811948       2.03603173      -0.67413751
H       -1.59025246       0.84409714       1.96842383
H       -2.55798748       1.93355432       0.86771614
H       -3.61198365       0.96625297      -1.11509953
H       -2.69967293      -0.19138766      -2.10816074
H       -4.17901341      -1.04366953       0.11610979
