19
Properties=species:S:1:pos:R:3 Energy:=T 2843.9037573=T pbc="F F F"
C        1.40208238       0.19157318      -0.14573718
O        0.00256157       0.21236559      -0.00668298
C       -0.32284749       0.71017721       1.23462340
C       -0.72655661       2.14023118       1.31104621
C       -1.81425714       1.09406903       1.44355262
C       -1.86689193       0.23569095       2.70936893
C       -0.79036451       0.42800767       3.75894284
O       -0.82558397      -0.51635822       4.81428439
C       -0.41406815      -0.20815919       2.43488273
H        1.88376099      -0.30842362       0.70491911
H        1.61885760      -0.35763677      -1.07078034
H        1.80521719       1.20914661      -0.24208096
H       -0.46768002       2.85444901       2.07843631
H       -0.71109994       2.53597599       0.30613672
H       -2.15742261       0.65282299       0.52645290
H       -2.78811911      -0.24708124       3.03144583
H       -0.40844831       1.39568198       4.07803994
H       -1.73424415      -0.53435515       5.14743480
H        0.11141447      -1.15262725       2.51800540
