19
Properties=species:S:1:pos:R:3 Energy:=T 1443.4766671=T pbc="F F F"
C       -2.13547753      -2.82587744      -1.65545379
C       -1.74509445      -1.40809732      -1.27653971
C       -2.31787742      -0.69389472      -0.05473342
C       -2.31952601       0.83070907       0.03245825
C       -0.84101188       1.29051017      -0.09877827
C        0.00353720       0.01495051       0.06537593
O        1.18195164      -0.03817955       0.33813321
C       -0.88478771      -1.19992221      -0.02956433
O       -0.45576973      -2.34339701       0.60920522
H       -2.48693200      -3.41206966      -0.79877770
H       -2.91760386      -2.84477908      -2.42224263
H       -1.26550180      -3.33235743      -2.08724147
H       -1.51308269      -0.77690659      -2.12971397
H       -3.10174584      -1.23603338       0.46092513
H       -2.95073491       1.27966965      -0.73661764
H       -2.72783219       1.14112223       0.99890273
H       -0.62286855       1.75517831      -1.06682563
H       -0.55904200       2.01818804       0.66573109
H        0.17586986      -2.01864330       1.26710711
