19
Properties=species:S:1:pos:R:3 Energy:=T 527.2673840=T pbc="F F F"
C       -2.50253897      -2.40672198       1.47984500
C       -1.07184273      -2.13745943       1.01639426
C       -0.23020492      -1.47282905       2.10443091
O       -0.45779503      -1.54149956       3.28643590
C       -1.04853568      -1.20556679      -0.19506549
C       -1.63093432      -1.63191787      -1.57686511
C       -0.27928604      -1.28754393      -2.28752462
C        0.29841925      -0.94734563      -0.90458614
O        1.37201149      -0.56688566      -0.52153777
H       -2.52877736      -3.15534386       2.27335990
H       -2.95730620      -1.49443642       1.88355286
H       -3.09519112      -2.75796788       0.63198770
H       -0.57069772      -3.08532164       0.78153875
H        0.65689002      -0.90564456       1.74140694
H       -1.44968984      -0.22854408       0.12363588
H       -1.90669855      -2.68861603      -1.65442888
H       -2.47529880      -1.01563722      -1.89412187
H        0.23141924      -2.10245993      -2.80854628
H       -0.33130304      -0.42213743      -2.95889150
