19
Properties=species:S:1:pos:R:3 Energy:=T 3130.6581105=T pbc="F F F"
O       -1.16391522      -3.46219998       0.25243659
C       -1.77177141      -2.30198325       0.76394641
C       -1.59567234      -1.04173916      -0.11403332
C       -0.81694247      -0.38626520       1.04443476
C       -1.57288913      -0.31072949       2.36010797
C       -1.01118697      -1.64060989       1.93084291
C        0.33884352       0.51665282       0.88413462
C        0.53915411       1.17411020      -0.40871430
O        1.40118320       0.10892068      -0.00697277
H       -0.24677692      -3.23555524       0.05359147
H       -2.80861560      -2.55729550       0.99110989
H       -1.00442147      -1.28362881      -0.99788514
H       -2.49864067      -0.50942045      -0.43128328
H       -1.01427965       0.19362151       3.14508493
H       -2.65491815      -0.21102278       2.42592825
H       -0.33022339      -2.17863739       2.57973395
H        0.71543676       0.98472623       1.79020211
H       -0.17049134       0.91099635      -1.19733041
H        1.00618728       2.15394898      -0.49576474
