19
Properties=species:S:1:pos:R:3 Energy:=T 1683.1612291=T pbc="F F F"
C       -1.16287757      -2.43379117      -2.14475849
C       -0.80805395      -1.04799374      -2.65679422
O       -1.44912559      -0.43833946      -3.48400523
C        0.39859817      -0.47866051      -1.97163812
C        0.94877989       0.87916257      -2.36201392
C        2.28725088       1.08604539      -1.62487788
C        1.52266010       0.98477530      -0.27540646
O        1.46718895       2.15131787       0.51014097
C        0.21906201       0.70943669      -1.03789383
H       -0.97096495      -2.48859001      -1.06565024
H       -2.20735759      -2.67376253      -2.34981388
H       -0.51928305      -3.18760280      -2.60827788
H        1.09413121      -1.27335721      -1.68848341
H        0.65579621       1.46926227      -3.22104889
H        3.03230742       0.29782455      -1.77056889
H        2.73746422       2.06748408      -1.78853560
H        1.86905909       0.15841514       0.34663361
H        1.46649877       2.90909553      -0.08858450
H       -0.73003500       1.11151795      -0.69894379
