19
Properties=species:S:1:pos:R:3 Energy:=T 1351.1999334=T pbc="F F F"
O        1.44701360       1.30006623       0.10336227
C        0.33251100       0.42366601       0.05666989
C       -0.85288931       1.01793965      -0.72109931
C       -2.20195209       0.38208138      -0.42766596
O       -2.61298040       0.40448539       0.92842982
C       -2.85042534      -0.68659050      -1.25768165
C       -3.32663966       0.74766471      -1.43204362
C       -4.38744211       1.49761318      -0.81559672
C       -5.30606231       2.21603924      -0.49859224
H        1.26683572       2.08201912       0.63929813
H        0.71952510      -0.48187884      -0.41817306
H       -0.02179528       0.15349414       1.06319366
H       -0.96845678       2.08127525      -0.45802789
H       -0.62456658       1.00000344      -1.79820562
H       -3.06548440       1.25342560       1.08172153
H       -2.34670259      -1.12991114      -2.11123081
H       -3.45159781      -1.38203454      -0.68601112
H       -2.90650941       1.23140236      -2.32231179
H       -6.13036049       2.79796091      -0.17652687
