19
Properties=species:S:1:pos:R:3 Energy:=T 1847.8908926=T pbc="F F F"
O        0.53963314       0.82405285      -2.98465836
C        1.50011260       1.00224397      -1.99413579
C        1.11103422       0.91474015      -0.52936262
C        1.94678049       0.06278196       0.35144863
O        1.45802184      -0.56620799       1.26318024
C        1.50680122       2.23664620      -1.16707556
C        0.60356571       3.43446748      -1.47614222
C        1.89840149       4.26023330      -1.74893132
C        2.75801240       3.12637847      -1.10403181
H        0.22164515      -0.08829938      -2.88356661
H        2.48198358       0.59219300      -2.24064062
H        0.04515037       0.82366807      -0.32015998
H        3.04037598       0.01010680       0.13681270
H       -0.08582704       3.29932433      -2.31632124
H        0.03059029       3.76450965      -0.60150953
H        2.09983028       4.35615484      -2.81845896
H        1.97577950       5.24387406      -1.28422971
H        3.60561735       2.76345681      -1.70268806
H        3.10783227       3.32672450      -0.08409899
