19
Properties=species:S:1:pos:R:3 Energy:=T 1415.0897088=T pbc="F F F"
C        1.54770249      -0.19789781       0.05251416
O        0.21849167       0.32292808      -0.01531188
C       -0.37515424       0.83427081       1.15163227
C        0.11340633       0.27334382       2.47143994
C       -0.76838804       2.29049590       1.00541944
O       -0.53621143       2.93892645      -0.19616045
C       -1.86465852       1.22284910       1.03314138
C       -2.63963526       1.08384778      -0.15170492
C       -3.29261947       0.96382506      -1.15438528
H        1.86940455      -0.37117722       1.08276135
H        1.60036317      -1.14265883      -0.48623418
H        2.24360417       0.50509226      -0.40940941
H        0.06349578      -0.81481295       2.49404192
H        1.16415741       0.50233144       2.62925108
H       -0.42820613       0.67931732       3.31563627
H       -0.60975678       2.93397949       1.86199069
H       -0.83886795       2.31774157      -0.86631021
H       -2.40955763       1.10985954       1.97271059
H       -3.79912308       0.97805002      -2.08090136
