19
Properties=species:S:1:pos:R:3 Energy:=T 1383.6809826=T pbc="F F F"
C        4.76787758       0.15427707      -0.37204867
C        3.26606935       0.17913750      -0.26487882
C        2.27230375       0.85367807      -1.23965556
C        1.40867338       0.20982196      -0.13246348
C        2.32960400      -1.04449663      -0.13357431
O        2.45588940      -1.57753837       1.17855491
C        2.50194112      -0.41351884       2.01263548
C        2.45031864       0.69336788       0.96789827
O        2.67787405       1.99782812       1.37903374
H        5.16234503      -0.30533863       0.53696039
H        5.06929184      -0.45474555      -1.23327053
H        5.19601282       1.15735641      -0.49309271
H        2.29592500       1.94346651      -1.28595637
H        2.20448146       0.40968816      -2.23126290
H        0.31617113       0.22665457      -0.05434691
H        2.29542588      -1.80409877      -0.91273755
H        1.64512755      -0.40433854       2.70288607
H        3.43468228      -0.38855521       2.58468299
H        2.12592653       2.17588451       2.14862702
