19
Properties=species:S:1:pos:R:3 Energy:=T 1652.1335481=T pbc="F F F"
O        1.52301875      -0.70301730       5.74955954
C        1.87069370       0.04401487       4.60000600
C        0.64830119       0.51901333       3.78226887
C        1.04386319       1.38989997       2.59747804
C        0.06699704       2.38893615       2.05648561
C        0.66556192       2.91408254       0.74853609
C        1.82181406       3.53567592       1.56656252
O        2.72527854       4.27300351       1.27713241
C        1.31247010       2.88582061       2.82157914
H        0.58160815      -0.86330377       5.72006960
H        2.44103471       0.92457073       4.92319809
H        2.54488046      -0.54624256       3.96222414
H        0.11412429      -0.36477615       3.39741416
H       -0.05507913       1.06517271       4.43147303
H        1.62350081       0.86736898       1.83121042
H       -0.97318651       2.48189009       2.35463134
H        1.06487846       2.13559981       0.09682821
H        0.08366772       3.62951913       0.16665250
H        1.48239269       3.29549157       3.81257037
