19
Properties=species:S:1:pos:R:3 Energy:=T 174.9828081=T pbc="F F F"
C        1.46506745      -0.06702357       0.03214932
O        0.06011937      -0.02673961       0.21366766
C       -0.46459586       0.75638502       1.24892770
O       -0.06784498       2.09896346       1.12068952
C       -0.21021291       2.86577981       2.32808777
C       -1.61463743       3.28601647       2.62824766
C       -2.73550233       2.77043016       2.08789278
C       -2.88844161       1.53689459       1.41217872
C       -1.94623363       0.60191358       1.17392204
H        2.01577442      -0.04644782       0.97966933
H        1.66555943      -1.00729455      -0.48424207
H        1.82135749       0.73552411      -0.61721243
H       -0.11514091       0.36158759       2.22083070
H        0.21992161       2.28073325       3.15585120
H        0.43859476       3.72768576       2.16406738
H       -1.71198865       4.14223445       3.29466388
H       -3.66196202       3.34012427       2.18248202
H       -3.89919814       1.32792880       1.05324498
H       -2.24912411      -0.36285594       0.77922046
