19
Properties=species:S:1:pos:R:3 Energy:=T 142.5362515=T pbc="F F F"
O        1.39518905      -0.50693936       0.63059717
C        0.36030203       0.04688212       0.35527995
C       -0.57513835       0.79709207       1.30065221
C       -1.27815735       1.89339787       0.47223391
O       -1.98889514       1.33172545      -0.62242127
C       -3.32680467       0.97424249      -0.37756638
C       -3.63198640       0.59017541       1.08174191
C       -2.74738221      -0.43260774       1.71604961
C       -1.44856063      -0.23089405       1.97208726
H        0.01376274       0.11502901      -0.68492700
H        0.02634490       1.28962449       2.07403039
H       -1.91874443       2.51894865       1.11170545
H       -0.53077499       2.55151456       0.01933562
H       -3.95912595       1.84490765      -0.61428107
H       -3.57924508       0.19051572      -1.10082682
H       -3.56871380       1.53500768       1.64533235
H       -4.67839985       0.28123610       1.13626411
H       -3.22826216      -1.31321993       2.13182806
H       -0.93039737      -0.87276851       2.68000440
