19
Properties=species:S:1:pos:R:3 Energy:=T 1795.5726749=T pbc="F F F"
C        2.10470449       0.83200348      -3.33176624
C        2.83856817       0.48409999      -2.04213511
C        2.24814245      -0.41697568      -0.97437593
C        1.67091751       0.41465270       0.17918016
O        0.42623252      -0.14921790       0.66227581
C       -0.35928461       0.91091434       0.08971997
C        0.91630843       1.69721882      -0.25502739
O        1.03256679       2.18818629      -1.57627171
C        2.23423966       1.84618143      -2.23494899
H        2.71459728       0.95486682      -4.22218802
H        1.09724825       0.47615806      -3.51258754
H        3.91983544       0.42912137      -2.14236998
H        1.44094253      -1.04949746      -1.36075610
H        3.00291925      -1.10914496      -0.57798097
H        2.36999081       0.51644798       1.01907886
H       -0.93885166       0.58004390      -0.77678629
H       -1.01899626       1.37020258       0.83671228
H        1.08315435       2.52747239       0.43747623
H        2.86660390       2.71702616      -2.40261943
