19
Properties=species:S:1:pos:R:3 Energy:=T 1445.3067499=T pbc="F F F"
C       -0.25044049       0.13668480       0.33695999
C        1.21151231      -0.18214577       0.10253340
C        1.65470906      -1.06746540       1.24917677
O        2.68403513      -1.68363906       1.35764572
C        1.84090713      -0.34318717      -1.28146920
C        1.13516134       0.16962740      -2.53574618
O        0.98530129       1.58586664      -2.38750603
C        1.64441977       2.07033550      -1.21268107
C        2.18297486       0.85337571      -0.45817862
H       -0.35081309       0.68756363       1.27766914
H       -0.69727117       0.70521354      -0.46318476
H       -0.80913231      -0.79237571       0.45299598
H        0.92055101      -1.06998176       2.07320747
H        2.56057334      -1.14650158      -1.39638122
H        1.72430647      -0.05270112      -3.43326337
H        0.15065298      -0.29203338      -2.67847343
H        2.45517618       2.75062444      -1.49541843
H        0.93788363       2.64331911      -0.59930738
H        3.15474200       0.92916078       0.01821126
