19
Properties=species:S:1:pos:R:3 Energy:=T 1526.4368335=T pbc="F F F"
C        1.28057725       0.80350947       0.17276045
C       -0.03480868       0.12065078       0.13673857
C       -0.33214201      -1.14008920       0.57468706
C       -1.74916460      -1.42911050       0.33824347
O       -2.15341719      -1.23204289      -1.05209647
C       -2.36868666      -0.17528204      -0.14603958
C       -1.29744662       0.91269863      -0.19825638
C       -1.33827401       1.73561675      -1.47620169
O       -1.50944716       1.88365079       0.83342793
H        1.53451533       1.22399914       1.15475956
H        2.09167037       0.12095754      -0.08418738
H        1.29339229       1.64956203      -0.51689507
H        0.35275034      -1.84685077       1.02683994
H       -2.26893686      -2.24243222       0.83492031
H       -3.39986667       0.12546984       0.01883754
H       -1.18322987       1.16182890      -2.38748296
H       -2.31241766       2.22686397      -1.52461738
H       -0.59398356       2.53206949      -1.42610893
H       -1.38551759       1.45141999       1.68348289
