19
Properties=species:S:1:pos:R:3 Energy:=T 161.7825056=T pbc="F F F"
C       -0.56643843       2.31017690      -0.94327795
C       -0.92571546       1.06000314      -0.13397772
C       -2.31791862       0.49664742      -0.47153953
C       -2.35759306      -0.97284922       0.02444748
C       -2.96555522      -1.15337412       1.42572908
C       -0.87800252      -1.38092459      -0.00045052
O       -0.44512403      -2.48045648       0.22576501
C       -0.03436829      -0.15708410      -0.35495998
O        1.10867302      -0.16769034      -0.72737563
H       -0.78137205       2.21783708      -2.01443415
H       -1.16148725       3.15170095      -0.57391518
H        0.48471957       2.56854197      -0.81175490
H       -0.83432505       1.31713721       0.92213055
H       -3.12969790       1.08509200      -0.04674446
H       -2.38451476       0.52357650      -1.56809525
H       -2.95111657      -1.58591039      -0.66567713
H       -3.07920543      -2.21029786       1.67748626
H       -2.34918713      -0.68380182       2.19994178
H       -3.95603977      -0.69061527       1.44795186
