19
Properties=species:S:1:pos:R:3 Energy:=T 2676.2374787=T pbc="F F F"
O        0.62426311      -0.09226081       0.54776435
C       -0.52380475       0.65762577       0.81781049
C       -1.91016391       0.10283738       0.55250011
O       -3.03990026       0.60484821       1.24427301
C       -3.32456329       1.96183778       0.84772044
C       -2.26881162       2.34040734      -0.17886909
C       -2.58607787       3.27707757      -1.32762524
C       -1.65179493       3.72143625      -0.22907123
C       -1.36275507       1.14877180      -0.36642070
H        0.38977262      -1.02274673       0.51243793
H       -0.35661896       1.38052416       1.61293667
H       -2.02157066      -0.96201807       0.34848743
H       -4.34707663       2.00831676       0.44525009
H       -3.33744798       2.60282111       1.74461486
H       -2.16408530       3.01744648      -2.29347713
H       -3.56470174       3.75330101      -1.38297608
H       -0.58276909       3.74287184      -0.42308076
H       -1.97214499       4.46348919       0.49579503
H       -0.91466846       0.94665391      -1.33612017
