19
Properties=species:S:1:pos:R:3 Energy:=T 314.9802957=T pbc="F F F"
C        1.24118384      -0.32961082       1.01723939
C        1.00882164       0.38991544      -0.32544046
C        1.78403386      -0.30474524      -1.45092208
O        1.61877281      -1.73249018      -1.28917913
C        0.75416043      -2.09384759      -2.35642834
O       -0.01738371      -0.93343136      -2.65544496
C        1.14432599      -0.10896384      -2.83692913
C        1.95807578      -0.92748289      -3.83713154
C        1.64162539      -2.19149249      -3.60018579
H        1.18181930      -1.40278446       0.83419189
H        2.23643488      -0.11256916       1.42696391
H        0.49637155      -0.05638506       1.78352054
H       -0.04023832       0.31156230      -0.63174636
H        1.28368498       1.45051823      -0.29654588
H        2.84846297      -0.02985593      -1.46094994
H        0.13067280      -2.94632028      -2.09321500
H        0.88355069       0.91818707      -3.10425490
H        2.60201065      -0.48633110      -4.58094035
H        1.89419638      -3.10101267      -4.13324277
