19
Properties=species:S:1:pos:R:3 Energy:=T 2128.8272601=T pbc="F F F"
C        1.05143821       0.22050892      -0.29066017
O       -0.21503848      -0.08585034       0.27612943
C       -0.52062227       0.56351917       1.49546801
C       -0.06544392       2.00971066       1.71502237
C       -1.08998356       2.85012603       0.93799959
C       -1.37984811       2.33834767       2.34320559
C       -1.96796953       1.06962060       1.64767863
C       -2.14000558       1.90181621       0.36114154
O       -3.43497286       2.42397434       0.18850340
H        1.86624420      -0.14278115       0.34888703
H        1.12234909      -0.34300402      -1.22407434
H        1.24001731       1.27019044      -0.52735359
H       -0.24802256      -0.08989685       2.33563528
H        0.90830697       2.38080197       2.00655915
H       -0.86134676       3.83365713       0.55524213
H       -1.65957969       2.88289756       3.22532877
H       -2.78951278       0.45219865       2.00483815
H       -1.79021949       1.36421423      -0.51110482
H       -4.04963224       1.67259685       0.17024397
