19
Properties=species:S:1:pos:R:3 Energy:=T 4129.6991532=T pbc="F F F"
C        0.55604840      -0.78404886       0.61558758
C        1.75423480      -0.66750392      -0.28009628
C        0.56674244       0.25526130      -0.47595564
C       -0.43631547      -0.01558546      -1.56163552
C       -0.16456475       0.28179913      -2.96358921
O       -0.06837067      -1.07125341      -2.46697701
C       -1.89035948       0.07711549      -1.15352742
C       -2.72404577      -1.13576701      -1.19012862
O       -2.81611094      -0.13645055      -2.22481913
H       -0.04132884      -1.65565995       0.38699736
H        0.57395033      -0.52509423       1.66660187
H        2.70146018      -0.29724363       0.09601051
H        1.86343400      -1.40439308      -1.07275633
H        0.72294113       1.31353606      -0.27411788
H       -1.05334099       0.49099714      -3.54405194
H        0.77280667       0.76017143      -3.24139452
H       -2.14036563       0.88592695      -0.46421909
H       -2.18381719      -2.05912730      -1.40010715
H       -3.63532748      -1.23553867      -0.61099129
