19
Properties=species:S:1:pos:R:3 Energy:=T 638.8973051=T pbc="F F F"
C       -0.10011794       0.44985097       0.00098692
C        1.37787079       0.12831236      -0.11312550
C        1.94203918      -0.14325562      -1.52577201
O        1.47360073       1.05391064      -2.19481058
C        2.32644337       1.94003352      -1.42880114
C        3.66918580       1.49261239      -2.01754213
C        3.49679313       0.13136766      -1.34553713
O        3.59586063       0.56395383       0.03340085
C        2.35374705       1.30086975       0.02010158
H       -0.35802179       0.73736052       1.02754863
H       -0.33792894       1.27203876      -0.67633885
H       -0.70460544      -0.42411912      -0.27185403
H        1.65740877      -0.67276821       0.56585928
H        1.64211436      -1.05207496      -2.04605178
H        2.02126037       2.98278598      -1.52157744
H        3.65069548       1.47487403      -3.10843417
H        4.54498879       2.03024946      -1.65297287
H        4.19250931      -0.67225924      -1.56360803
H        2.27983630       1.96387732       0.88140844
