19
Properties=species:S:1:pos:R:3 Energy:=T 1355.7391798=T pbc="F F F"
C       -1.76239676      -0.10127910       0.59131494
C       -0.23538153      -0.13007679       0.66349901
O        0.13604236      -1.09482905       1.66209266
C        0.40197742       1.17949307       0.91148386
C        1.04305666       2.18408327       1.05592364
C        0.28199492      -0.64673968      -0.66135235
O       -0.07164480       0.17656828      -1.73462931
C        0.26692659      -2.08316052      -1.08354193
C        1.58493969      -1.37399939      -0.78291582
H       -2.20151844       0.07123672       1.56834953
H       -2.16213188       0.63642671      -0.10114406
H       -2.08853496      -1.08769917       0.24097860
H        0.14822414      -0.64621145       2.52108499
H        1.45122733       3.13679817       1.28162838
H        0.01970096       1.09392743      -1.45357139
H       -0.08069066      -2.84722974      -0.40050062
H        0.02340751      -2.21961832      -2.12181645
H        2.14014932      -1.73460670       0.06789599
H        2.19402313      -1.09814400      -1.62947882
