19
Properties=species:S:1:pos:R:3 Energy:=T 730.1437542=T pbc="F F F"
C       -2.66823909      -1.64395166      -1.51647823
C       -1.59555157      -0.64044127      -1.11853997
C       -1.96779225       0.50638263      -0.10696112
C       -0.62423098       1.27353412       0.00943195
C        0.30996981       0.05239414       0.06807244
O        1.50919993       0.02721991       0.00369859
C       -0.67498595      -1.09664084       0.06741180
C       -1.75894092      -0.54199679       1.04852253
O       -2.79093729      -1.46944607       1.32704568
H       -3.15550297      -2.02532961      -0.62111192
H       -3.43224413      -1.21804014      -2.17901550
H       -2.23153711      -2.48572939      -2.06589435
H       -1.03688127      -0.28297073      -1.99715670
H       -2.87839036       1.10306771      -0.21760832
H       -0.38012614       1.90482802      -0.84654065
H       -0.53653384       1.85947824       0.92868782
H       -0.24839486      -2.09257900       0.14187521
H       -1.36396972      -0.11549900       1.97939280
H       -3.37700095      -1.14184996       2.02330792
