19
Properties=species:S:1:pos:R:3 Energy:=T 2237.2859427=T pbc="F F F"
C        1.40903948       1.26220031       0.00569942
C        1.00943847      -0.21503312       0.08597877
C        1.75432996      -0.95391595      -0.98281453
C        3.25284455      -1.19885518      -1.14374921
C        2.87324948      -2.03202587      -2.39296240
O        2.26801666      -1.04711503      -3.27546025
C        1.18066934      -0.97032766      -2.37242140
C        1.49323506      -2.26389788      -1.67447652
O        0.72790735      -3.22352315      -1.07868038
H        0.92685065       1.86885525       0.76966499
H        2.49404186       1.35993073       0.10418880
H        1.13253237       1.66287266      -0.97413258
H        1.20778822      -0.65963738       1.07175979
H       -0.06777569      -0.32707833      -0.08861132
H        3.88010133      -0.32174598      -1.33241193
H        3.66469348      -1.80294082      -0.33508749
H        3.52171014      -2.74638586      -2.89365570
H        0.26129096      -0.49309056      -2.68349898
H        0.08772580      -2.74225541      -0.53915843
