19
Properties=species:S:1:pos:R:3 Energy:=T 283.3263184=T pbc="F F F"
O        0.51863311       0.07345113       0.65362340
C       -0.19012886       1.25920409       0.31534210
C       -1.23700770       1.73088469       1.39591651
C       -2.54022794       1.38527676       0.74116349
C       -2.41212626       0.98388873      -0.50408387
C       -3.75225540       0.70725918      -1.11598399
O       -4.67519501       0.97889526      -0.05237229
C       -3.99165804       1.42807047       1.12744056
C       -1.00355706       0.97337648      -1.00201774
H        0.45909499      -0.09066390       1.59881368
H        0.53854727       2.05454441       0.14738229
H       -1.09850147       1.22804791       2.36088594
H       -1.17911020       2.80982156       1.60750419
H       -3.97929460       1.34723631      -1.98754968
H       -3.87426733      -0.33190455      -1.46360624
H       -4.35203305       2.43302901       1.40469411
H       -4.23397842       0.76402466       1.97219522
H       -0.72031953      -0.00330060      -1.41095578
H       -0.85554434       1.72730684      -1.79430096
