19
Properties=species:S:1:pos:R:3 Energy:=T 106.2265554=T pbc="F F F"
C       -0.01838962       2.52303377       0.33327515
C       -0.85237465       1.26026766       0.04983875
C       -2.05859562       1.08147182       0.98668111
C       -2.91542369      -0.13333488       0.61140613
O       -3.68839624       0.24284867      -0.53681913
C       -2.09592762      -1.35864999       0.33468261
C       -0.77414871      -1.29835845       0.17237814
C       -0.02497490      -0.02850808       0.03353482
O        1.18519411      -0.03932711      -0.06498465
H        0.38255097       2.59998314       1.35668368
H        0.84264416       2.53235414      -0.34163378
H       -0.61957155       3.42214983       0.14089062
H       -1.25093620       1.39011251      -0.96724137
H       -1.73378126       1.04122152       2.03551893
H       -2.70324155       1.94996425       0.86215249
H       -3.60152826      -0.35190403       1.43492788
H       -4.00561187      -0.58142538      -0.92667834
H       -2.61001460      -2.32041167       0.31118627
H       -0.18366287      -2.21185703       0.07478097
