19
Properties=species:S:1:pos:R:3 Energy:=T 472.6779414=T pbc="F F F"
C        1.50865197      -0.06807944       0.05837079
C        0.04744948      -0.04922756       0.05841650
C       -1.14860696      -0.11382670       0.14236583
C       -2.62909569      -0.06064917       0.02413687
O       -3.33919531       0.13371080       1.24281744
C       -3.06365325       1.01111142      -0.98360771
C       -4.56959144       0.88989057      -1.27649277
O       -4.31123332       0.43744252      -2.62003728
C       -2.89399621       0.66602651      -2.47611584
H        1.88066055      -0.21918887       1.07599768
H        1.89006386      -0.87551206      -0.57882845
H        1.93756269       0.86478487      -0.32341691
H       -2.95333900      -1.05176604      -0.31548556
H       -2.94961829       0.89542442       1.68655217
H       -2.70726447       2.00452153      -0.68890679
H       -5.07632904       0.12694350      -0.67171817
H       -5.15405464       1.81391441      -1.27456941
H       -2.30155028      -0.23990426      -2.66118934
H       -2.54174051       1.48205299      -3.11511972
