19
Properties=species:S:1:pos:R:3 Energy:=T 764.9720000=T pbc="F F F"
C       -0.14004917       0.10634982      -0.13319273
C        1.34318711      -0.06211290       0.10716839
C        2.19291721      -1.27757463      -0.36916776
C        3.36168357      -0.29828516      -0.05050226
O        3.28296692      -0.18037070       1.37522982
C        1.94157276       0.31446800       1.49909542
C        2.06633372       1.84541730       1.44383630
O        2.44635920       2.08445280       0.08655836
C        2.40510889       0.83563026      -0.57086520
H       -0.74726389      -0.58424200       0.46500778
H       -0.47186184       1.11674715       0.12222354
H       -0.39297478      -0.06265514      -1.18920828
H        2.16214440      -2.19083035       0.23872460
H        2.08203904      -1.50145913      -1.43510433
H        4.38927129      -0.44460150      -0.39117202
H        1.45582581      -0.11055997       2.37733470
H        1.12634459       2.36188012       1.67050458
H        2.84888753       2.22017493       2.11108344
H        2.37835764       0.98065103      -1.65002427
