19
Properties=species:S:1:pos:R:3 Energy:=T 1313.8992636=T pbc="F F F"
C       -2.33552292       0.86221153      -1.18512260
C       -1.07824407       1.16977122      -1.97028734
C       -0.86082795       0.73117750      -3.40193784
C       -0.10821118       0.04334845      -2.30645936
C        1.37592797       0.28798792      -2.12803906
C        1.60333808       0.47640398      -0.64540494
O        1.37625157       1.52807493      -0.08908970
C        1.73406335      -0.84475522       0.08256505
O        2.06740836      -1.88445856      -0.42917370
H       -2.06484919       0.51951079      -0.18015045
H       -2.99041681       1.73402439      -1.07989533
H       -2.92569576       0.07115310      -1.65696848
H       -0.66175817       2.14991853      -1.77273269
H       -1.69896988       0.23229857      -3.87703548
H       -0.22414715       1.33574385      -4.04250409
H       -0.43704478      -0.94939872      -2.01935593
H        1.98582425      -0.54908763      -2.47198565
H        1.68333304       1.20116932      -2.63666500
H        1.37429994      -0.77135138       1.12260395
