19
Properties=species:S:1:pos:R:3 Energy:=T 948.3328043=T pbc="F F F"
C       -0.16098143       0.42563062      -0.58194306
C        1.28674932       0.26323121      -0.32058356
C        2.20019845      -0.75414323      -0.91592079
C        2.53368184      -1.82281343       0.18314985
C        2.40377998      -1.17278904       1.52365940
C        2.57347278       0.31706739       1.64910099
O        1.83539604       1.02483483       0.65628210
C        2.14786808      -1.88337485       2.71407635
O        2.50816628      -1.46024264       3.79914331
H       -0.59771975       1.19868692       0.06328127
H       -0.34905677       0.72453943      -1.61678979
H       -0.68673060      -0.52384141      -0.41944366
H        1.79964818      -1.21132499      -1.82445980
H        3.14558409      -0.27682216      -1.20398693
H        1.84357446      -2.68008803       0.12651416
H        3.55023175      -2.22479323       0.03845396
H        2.17906888       0.64020035       2.61654545
H        3.63125718       0.63576724       1.61852849
H        1.67674095      -2.88403618       2.64229054
