19
Properties=species:S:1:pos:R:3 Energy:=T 946.9629408=T pbc="F F F"
C        0.14273229      -1.16821444      -3.22666158
C       -0.12921980      -0.58536258      -1.85350802
C       -0.58904894       0.89300037      -1.80670612
O       -1.85219787       0.55403522      -1.19908695
C       -1.46488659      -0.81889036      -1.07690305
C       -0.67309486      -1.08461143       0.21777196
C        0.66518242      -1.04163506      -0.58818770
C        1.76919856      -0.15997106      -0.08808528
O        2.21142485       0.79383405      -0.68503236
H        0.20925972      -2.26099460      -3.18161476
H       -0.66426609      -0.90208663      -3.91940202
H        1.08054906      -0.77811604      -3.64654826
H        0.02297056       1.55594527      -1.19095427
H       -0.74916161       1.34641241      -2.79168122
H       -2.22464812      -1.53731879      -1.40552990
H       -0.82539331      -0.29669111       0.96203988
H       -0.85728139      -2.05779377       0.67580735
H        1.05326578      -2.06297143      -0.73534571
H        2.24793563      -0.53320992       0.85603800
