19
Properties=species:S:1:pos:R:3 Energy:=T 1790.7538569=T pbc="F F F"
O        0.05945257      -0.95987235       0.28513208
C        0.38487246       0.14429004      -0.07832264
C       -0.14298752       0.82591543      -1.34576999
C       -1.14949441       1.87446131      -0.89551745
C       -1.36514997       3.17384035      -1.66132468
C       -0.41586823       3.09639775      -0.52283944
C       -0.29324254       3.93282163       0.72184893
C        1.19481431       4.04913224       0.26597392
O        0.97887188       3.16370729      -0.83552034
H        1.09398940       0.73595768       0.52394417
H        0.66601110       1.39888352      -1.78349615
H       -0.51349180       0.11681760      -2.09298510
H       -1.97979016       1.55190489      -0.27825133
H       -0.96571566       3.33213796      -2.65911661
H       -2.26451702       3.73033983      -1.42379215
H       -0.85103569       4.87216828       0.76716535
H       -0.44987490       3.38036886       1.65116638
H        1.48435308       5.04790660      -0.07266072
H        1.95272293       3.68410149       0.96666608
