19
Properties=species:S:1:pos:R:3 Energy:=T 769.5577499=T pbc="F F F"
C       -2.76529984       0.79560247      -0.98212119
C       -2.29038976       0.19431718       0.32064574
C       -2.82309529       0.60578073       1.68459917
C       -2.12786040      -0.18069470       2.58443899
C       -1.26283686      -0.97118999       1.68388881
C       -0.77453488       0.15794414       0.70763418
O        0.09504767      -0.17823361      -0.34374431
C       -2.29971841      -1.35102015       0.56716968
O       -1.87310107      -2.12544245      -0.52500959
H       -2.24274137       0.34691606      -1.83612759
H       -3.83802052       0.62906609      -1.13734750
H       -2.57825487       1.87543433      -1.02132874
H       -3.58019719       1.35006134       1.90979475
H       -2.13882232      -0.27036784       3.66678160
H       -0.55965514      -1.71546401       2.04408014
H       -0.47992587       1.11088913       1.14251091
H        0.37083132      -1.12361737      -0.29410878
H       -3.29073167      -1.67000587       0.88364472
H       -0.93817315      -2.41868661      -0.41466168
