19
Properties=species:S:1:pos:R:3 Energy:=T 1880.4854215=T pbc="F F F"
O        1.55327774       0.61737827      -0.19760568
C        0.21536997       0.06071616      -0.13239231
C       -0.17960064      -0.16881088      -1.55836983
O        0.35784077       1.14020361      -2.14451127
C       -0.89535884       1.24697549      -2.98184456
C       -0.94738593       0.27939033      -4.15831720
C       -2.30656390       0.19959161      -3.45955311
C       -2.33587955       1.73432371      -3.31814475
C       -1.55132295       0.15295833      -2.12701665
H        1.53262152       1.12924963      -1.04958640
H        0.24261833      -0.82281224       0.50378593
H       -0.48009916       0.80578373       0.26308057
H        0.40810670      -0.96986427      -1.99241637
H       -0.82453640       0.59792184      -5.19232479
H       -0.31728559      -0.54278958      -3.86318388
H       -3.15847576      -0.42678271      -3.74470693
H       -2.54993162       2.30583176      -4.22820482
H       -2.88043164       2.11620678      -2.45608405
H       -2.13743285       0.59798753      -1.32724368
