19
Properties=species:S:1:pos:R:3 Energy:=T 2011.0471363=T pbc="F F F"
O       -1.51756109       1.34286852       1.77434496
C       -1.44270461       0.30875655       0.84824728
C       -2.30584119       0.30351942      -0.45125978
C       -1.85351428      -1.18479523      -0.46601460
C       -1.98032721      -1.14844114       1.08015534
O       -0.43322180      -1.05764568      -0.67539858
C       -0.13105383       0.04982695       0.17302939
C        0.69968488       1.17363325      -0.33537784
C        1.25502025       0.22079774       0.71114373
H       -2.08986844       1.04619430       2.49716781
H       -3.36549071       0.47527906      -0.26928691
H       -1.89515993       0.95306814      -1.23002515
H       -2.27681641      -1.95564964      -1.09236009
H       -3.02323456      -1.13417217       1.41106383
H       -1.39225422      -1.84434901       1.69302278
H        1.08208816       1.11652503      -1.34577174
H        0.37322464       2.15747653      -0.01291901
H        2.00572425      -0.49429214       0.40592556
H        1.34886647       0.58883783       1.72327073
