19
Properties=species:S:1:pos:R:3 Energy:=T 1398.5519143=T pbc="F F F"
C       -0.45645888       2.26339613       1.08826004
C       -0.86851253       1.25969066       0.00430572
C       -2.34977193       0.76280708       0.07586252
C       -2.32691510      -0.76001790      -0.04491565
C       -1.77492680      -1.33739554      -1.32338684
O       -2.12273488      -2.63418779      -1.71544354
C       -0.89466513      -1.22078503      -0.09074571
C       -0.02131890      -0.03017488       0.02095027
O        1.18730870      -0.09263777       0.07800961
H       -0.76336781       1.91705681       2.08298891
H        0.62381186       2.42235171       1.07280221
H       -0.94302303       3.22647574       0.88789720
H       -0.69808180       1.71800393      -0.98097745
H       -2.79799221       1.05018640       1.03446932
H       -2.96876833       1.20110523      -0.71744603
H       -3.11753845      -1.32809581       0.43301505
H       -1.65525846      -0.63626374      -2.14571113
H       -1.29605866      -3.14459375      -1.70036998
H       -0.52552748      -2.13706229       0.36994532
