19
Properties=species:S:1:pos:R:3 Energy:=T 1525.1177597=T pbc="F F F"
C        0.00409822      -0.16094024      -0.03632481
C        1.47500427       0.05950803       0.06043437
O        2.03168903      -0.65866248       1.13825187
C        3.37834004      -0.22819314       1.21751151
C        3.33660996       1.29343229       0.98390918
C        2.25534095       1.32894387      -0.09626508
C        2.39411696       0.22558719      -1.11886306
C        3.68418300      -0.56373950      -1.12086173
O        4.11048302      -0.88016016       0.20843564
H       -0.47115371       0.12477291       0.90821249
H       -0.44149727       0.41719201      -0.85418543
H       -0.18949260      -1.22460692      -0.19956387
H        3.80361660      -0.58611099       2.15040124
H        3.00523202       1.83775270       1.87438724
H        4.30539752       1.67997508       0.65625741
H        1.76024834       2.24827651      -0.38476696
H        1.90824620       0.37186515      -2.08257444
H        3.56001747      -1.51995375      -1.63353059
H        4.48384967      -0.00605854      -1.62641506
