19
Properties=species:S:1:pos:R:3 Energy:=T 2669.8668879=T pbc="F F F"
O        0.27704127      -0.07423159       0.21918210
C       -0.75289016       0.67805504       0.76302038
C       -1.51398108       0.05963150       1.91580498
C       -2.95656125       0.55341811       1.87446693
C       -2.81673385       2.07117573       2.03264045
C       -3.55907461       3.05152787       1.16530152
C       -3.87699888       2.92546237       2.64447527
O       -1.47174905       2.40657927       2.33721201
C       -0.64973274       1.28718213       2.13014646
H        0.99931651      -0.07643071       0.85950683
H       -1.32992575       1.20303681      -0.00040298
H       -1.20518476      -0.92580922       2.25798606
H       -3.37586016       0.30077145       0.88678062
H       -3.60453878       0.10212481       2.63138821
H       -3.02204347       3.93435739       0.83982157
H       -4.22661957       2.62394280       0.42749392
H       -3.55820131       3.74627729       3.27510134
H       -4.82648951       2.48912270       2.92646992
H        0.27656562       1.36042617       2.70169409
