19
Properties=species:S:1:pos:R:3 Energy:=T 2756.6249694=T pbc="F F F"
C        2.50184804      -0.54754972      -1.12917342
C        2.23395965      -1.97472862      -1.55211220
C        3.25188638      -2.77652602      -2.23585009
O        2.17342807      -2.17310721      -2.96091677
C        1.26766318       0.35665247      -1.11158716
C        0.12187117      -0.00937840      -0.10804279
C       -0.33442215       1.46503951       0.10892196
C        1.20827526       1.33401678       0.10048111
O        1.10623516       0.14802940       0.99966237
H        2.92006760      -0.62219067      -0.11795866
H        3.25877011      -0.10618412      -1.78554728
H        1.48648323      -2.49755003      -0.95779797
H        4.24339415      -2.33462466      -2.35949037
H        3.22576394      -3.86604255      -2.19218416
H        0.99657598       0.73250388      -2.09683529
H       -0.54659955      -0.88173621      -0.12956785
H       -0.84434352       2.00884691      -0.69390345
H       -0.77557504       1.68017467       1.08550937
H        1.93756740       2.11930479       0.32068424
