19
Properties=species:S:1:pos:R:3 Energy:=T 767.5328478=T pbc="F F F"
C       -0.07896278       0.31674311       0.05436556
C        1.39593957      -0.06650838       0.07261014
C        1.95345971      -1.16585895       1.04124257
O        3.36678787      -1.11344840       0.81561585
C        3.40630054      -1.37913126      -0.60085515
C        3.55070072      -2.89292236      -0.74507412
O        2.31932503      -3.36752614      -0.18198835
C        1.48465550      -2.24409670      -0.01010080
C        1.91714522      -1.10594832      -0.97670280
H       -0.31828018       0.96228582       0.91025526
H       -0.28491934       0.88774757      -0.86060123
H       -0.76269731      -0.54467026       0.07268573
H        2.00064702       0.84548657       0.11592625
H        1.71219234      -1.19108313       2.10470266
H        4.16224412      -0.76277847      -1.07696560
H        3.65297386      -3.20188243      -1.79134931
H        4.38444009      -3.29236693      -0.16872294
H        0.44857328      -2.57303401       0.07380924
H        1.68512457      -1.04578719      -2.03838286
