19
Properties=species:S:1:pos:R:3 Energy:=T 2700.9367674=T pbc="F F F"
O       -3.28049194      -0.17143756       3.20307949
C       -2.38621550       0.69659847       2.56413633
C       -1.18652296       1.07836836       3.37636448
C       -1.01050869       0.24418630       2.11832146
C       -0.63688496       1.00387918       0.87832826
O        0.17279700       0.38928443      -0.06859513
C       -0.59023985       2.51295099       0.93475027
C       -1.84693833       1.81857114       0.45392865
C       -2.96661685       1.62261502       1.47730634
H       -4.15988471       0.19283289       3.02906747
H       -0.91415632       2.12469882       3.43348737
H       -1.08094838       0.51002685       4.29654813
H       -0.69961674      -0.79045333       2.23991367
H        0.77953775      -0.19545639       0.40510043
H       -0.65731157       3.11058682       1.83574675
H        0.08275315       2.91932595       0.18316460
H       -2.11367249       1.97349993      -0.58458017
H       -3.33160369       2.57547845       1.89886299
H       -3.82271465       1.11521464       1.00643904
