19
Properties=species:S:1:pos:R:3 Energy:=T 646.6525116=T pbc="F F F"
O        0.97338778      -0.42056865      -0.75433798
C        0.19798138      -0.09197731       0.11338635
C        0.17384772       1.24219786       0.80458350
C       -0.92086445       2.24181547       0.30460461
C        0.17665590       3.26008163      -0.11408162
C        1.27505082       2.27110763       0.37883345
O        1.97873138       2.67712269       1.52696063
C        1.16614045       2.41899977       2.66419278
C        0.33313791       1.16194714       2.32905875
H       -0.59737789      -0.80083016       0.47210258
H       -1.49338660       1.84352824      -0.53443064
H       -1.61613693       2.60608396       1.06076380
H        0.22326486       3.44906901      -1.18844931
H        0.16597786       4.21822019       0.41093248
H        1.99613167       1.94422477      -0.37884159
H        1.81324099       2.29436730       3.54002676
H        0.50604619       3.27875337       2.86409015
H        0.86759088       0.24919520       2.61382283
H       -0.62317994       1.11917059       2.86329328
