19
Properties=species:S:1:pos:R:3 Energy:=T 110.7885318=T pbc="F F F"
C       -0.16869544       5.72564338      -0.06963837
C       -0.27557107       4.33245901      -0.67628361
O       -0.73076650       4.11948717      -1.77788463
C        0.11357038       3.13111486       0.20437166
C       -1.13531951       2.32353130       0.60935353
C       -0.78984225       1.29640050       1.64614123
C        0.36065555       1.30485990       2.31570960
C        1.38226427       2.37947252       2.06713240
O        0.85874886       3.50663655       1.34965881
H        0.88362084       6.02125917      -0.04146480
H       -0.73455958       6.43988522      -0.67684611
H       -0.53743006       5.71517437       0.95687516
H        0.72092390       2.48078487      -0.44062340
H       -1.96796441       2.94708582       0.97322415
H       -1.52683445       1.84543855      -0.29583995
H       -1.54916140       0.54456837       1.85937522
H        0.61401805       0.52522377       3.03149912
H        1.75602504       2.80273702       3.00637928
H        2.25137686       1.96063724       1.52712062
