19
Properties=species:S:1:pos:R:3 Energy:=T 1987.6182639=T pbc="F F F"
C        0.13328912       0.16407903      -0.08004525
C        1.62969856       0.07244755       0.06035538
C        2.20926979      -1.06456209       0.84188962
C        2.35397939      -1.01144650      -0.67989951
C        3.83055017      -0.87266295      -0.88096394
O        4.37939474      -1.73254308       0.24044210
C        3.62826538      -0.98108851       1.31222827
C        4.39209079      -0.10026916       0.31431874
O        5.79736225       0.07380331       0.41051906
H       -0.28297662       0.67654132       0.79631502
H       -0.12517201       0.75903583      -0.96552930
H       -0.35382082      -0.82245078      -0.17267823
H        2.12253482       1.02546760       0.16887676
H        1.50004452      -1.76523340       1.28216680
H        1.75266287      -1.70183053      -1.27477388
H        4.37925921      -0.97675424      -1.80117877
H        3.99757259      -1.16469409       2.30347348
H        3.98085239       0.91384824       0.36157800
H        6.12641202      -0.78858995       0.05558455
