19
Properties=species:S:1:pos:R:3 Energy:=T 1004.5799898=T pbc="F F F"
O        0.13328677       3.39424218       0.35490185
C       -0.18947415       2.04382056       0.65775117
C        0.07840183       1.60320148       2.08977537
C        1.53302049       1.49921313       2.58444068
C        1.27155927       0.06623230       3.12606849
C       -0.14598381       0.04095536       2.49249505
C       -1.20570085       0.47646886       3.48866178
O       -1.97586107      -0.11396625       4.19226324
C       -0.91736039       1.96668583       3.22516751
H        0.22390826       3.88945819       1.16920566
H       -1.24811838       1.87834252       0.40290395
H        0.40253689       1.43073233      -0.03579204
H        2.27514964       1.46696834       1.78000400
H        1.84440487       2.24110841       3.32581441
H        1.94375324      -0.70449681       2.74615358
H        1.24763328       0.00027539       4.21805290
H       -0.38256832      -0.73419873       1.75955310
H       -1.79764903       2.54037052       2.92861714
H       -0.46851043       2.47081544       4.08800123
