19
Properties=species:S:1:pos:R:3 Energy:=T 1352.6360063=T pbc="F F F"
C        1.82507604       1.42963474       0.82340076
C        1.56521983      -0.04826318       0.55434254
C        2.45675971      -1.05139487       1.36107588
C        2.72176334      -1.76423979       0.03392882
O        3.80548965      -2.55274491      -0.42678000
C        2.92388535      -3.37288977      -1.24792940
C        1.68731278      -2.61981206      -0.74325562
O        1.32826172      -1.46669274      -1.53797484
C        2.16231411      -0.55801302      -0.78425949
H        1.48971751       1.68989466       1.83714694
H        2.88625589       1.70739062       0.72609800
H        1.25445986       2.02484101       0.10313800
H        0.49236738      -0.26289700       0.60900549
H        3.38809367      -0.58397114       1.70642586
H        2.01546176      -1.60450180       2.19504393
H        3.13613846      -3.26402097      -2.31275053
H        2.98084765      -4.41932269      -0.93876016
H        0.80518074      -3.16565408      -0.40464627
H        2.67585488       0.16469684      -1.42650973
