19
Properties=species:S:1:pos:R:3 Energy:=T 1496.4643537=T pbc="F F F"
C        6.43310469      -1.02250423      -3.88826462
O        5.48224577      -1.17150584      -2.84086742
C        4.18672557      -0.86046792      -3.31797929
C        3.31914371      -0.71143382      -2.17335798
C        2.60662823      -0.39886974      -1.25268226
C        2.12267424      -0.02177721       0.07150859
C        1.76722354       1.45255141       0.17541049
C        0.39090030       1.92123124       0.27058715
O        1.10441203       1.99697106      -0.96687727
H        7.41215083      -1.30233073      -3.50174409
H        6.16710137      -1.65009566      -4.75834866
H        6.45300072       0.02494852      -4.23918698
H        4.21184662       0.07265175      -3.90552372
H        3.84017137      -1.65254431      -4.00211129
H        1.22762157      -0.61506975       0.29315022
H        2.87004762      -0.25939570       0.83296166
H        2.51252252       2.10688547       0.61913786
H       -0.39015833       1.16931009       0.31730422
H        0.21816451       2.87204690       0.74011555
