19
Properties=species:S:1:pos:R:3 Energy:=T 2007.5248158=T pbc="F F F"
C        1.00765205      -0.36059305      -0.79428397
C        0.91446008      -0.10647794       0.72338301
C        2.12376234      -0.66534513       1.57766100
O        2.61578930      -1.87598812       1.04049548
C        3.16710140       0.41386785       1.76658230
C        2.64920549       1.77399719       1.62098166
C        1.25439860       1.84636951       2.35359420
C        0.94037888       1.35825796       0.98234973
O        2.00413859       1.92845626       0.29207614
H        0.70684132      -1.38215658      -1.00851085
H        0.36348138       0.32383522      -1.35122494
H        2.01503762      -0.20079734      -1.17842235
H       -0.00811852      -0.54924276       1.11322152
H        1.72813325      -0.92535463       2.56372830
H        2.88985698      -1.71817503       0.13160223
H        4.21643095       0.18372608       1.91437682
H        3.32799276       2.61716797       1.78576136
H        1.01424446       1.17181236       3.17739505
H        0.91878186       2.86727962       2.51745176
