19
Properties=species:S:1:pos:R:3 Energy:=T 1520.1168657=T pbc="F F F"
C       -0.08377704      -0.01226442      -0.16061163
C        1.40430865       0.06640592       0.08291030
C        2.31171986      -0.89107551       0.87511853
C        3.24728817      -0.04538858       1.72253254
O        2.89205710       1.32177512       1.44956312
C        2.19387440       1.37192536       0.19998441
C        3.21247520       1.29714564      -0.95804976
O        3.36729220      -0.09720935      -1.27697322
C        2.35727775      -0.83075099      -0.64081034
H       -0.65650169       0.52937698       0.60198236
H       -0.34368014       0.43577710      -1.12956373
H       -0.40737439      -1.05965960      -0.16796770
H        1.91726508      -1.81951848       1.27964466
H        3.08538050      -0.20399654       2.79523501
H        4.30868404      -0.21662467       1.49091924
H        1.60987136       2.29344320       0.21248511
H        2.85938297       1.83397765      -1.84784612
H        4.18494210       1.69614329      -0.65706229
H        2.05017387      -1.72977320      -1.17156056
