19
Properties=species:S:1:pos:R:3 Energy:=T 90.5268319=T pbc="F F F"
C       -3.78011666      -1.07520756       1.80935606
C       -2.94608920      -1.28955224       0.55206125
O       -1.73395855      -0.55091765       0.68052844
C       -0.80754916      -0.75532364      -0.40163889
C        0.40589419       0.15818167      -0.27577124
C        0.09584391       1.45183968       0.42484533
O        1.46300679      -0.11109271      -0.80109747
C       -3.63005424      -0.91241305      -0.71383129
C       -3.71142868      -0.83499646      -1.91366304
H       -4.56598842      -1.83036510       1.86782426
H       -3.14035697      -1.21541152       2.69044786
H       -4.24644502      -0.09127205       1.91399478
H       -2.71166251      -2.36267413       0.48061074
H       -0.49440876      -1.80801824      -0.45938788
H       -1.21104191      -0.48493403      -1.38784015
H       -0.04239382       1.22881706       1.48245150
H        0.89764324       2.18244641       0.27679773
H       -0.83521093       1.85530311       0.02944169
H       -3.91929210      -0.90640055      -2.95320945
