19
Properties=species:S:1:pos:R:3 Energy:=T 1523.2142929=T pbc="F F F"
O        0.46881851       0.55957455      -0.03911909
C       -0.77747530       0.59357680       0.64231553
C       -2.03431905       0.25582414      -0.15028082
C       -3.14773409       1.08172867       0.49455475
C       -2.50230294       1.88893546       1.61743898
C       -1.13463142       2.05442400       0.94676392
O       -0.15943008       2.72537329       1.67519946
C       -1.50811904       2.62551791      -0.43718405
C       -2.51665942       1.55126511      -0.80366806
H        0.46455181      -0.24343803      -0.57350806
H       -0.73030641       0.03062553       1.59027774
H       -2.22277782      -0.71686238      -0.58372646
H       -4.16223778       0.71562706       0.53473956
H       -2.98079657       2.84526133       1.82616512
H       -2.39019494       1.31893004       2.54237021
H        0.67486049       2.46508536       1.25662973
H       -1.93838931       3.62552903      -0.35565283
H       -0.64623678       2.65567723      -1.11087602
H       -3.05851030       1.53805436      -1.73962975
