19
Properties=species:S:1:pos:R:3 Energy:=T 2358.7905929=T pbc="F F F"
C        0.31079527      -0.35431998      -0.12382417
C        0.97616268       0.96191067       0.24114249
O        2.41872303       0.89677837       0.10120068
C        2.60708493       1.09844846       1.51540514
C        2.85415108       2.60000068       1.80597682
C        1.32923205       2.77251540       1.91186728
C        0.50742368       3.90718313       2.27701197
O        0.61792780       3.55221623       0.91276429
C        1.07482492       1.26741930       1.75175907
H        0.85991120      -1.19264158       0.31744449
H       -0.71762945      -0.38790970       0.26046962
H        0.26862246      -0.49281480      -1.21051038
H        0.58807380       1.82223056      -0.30228141
H        3.22373504       0.34438986       2.00017888
H        3.39801506       2.80928026       2.73135429
H        3.33853162       3.11128676       0.96631827
H       -0.44837641       3.75738397       2.77745611
H        1.00831360       4.82923010       2.56061746
H        0.46561758       0.73104225       2.48060903
