19
Properties=species:S:1:pos:R:3 Energy:=T 1497.9544293=T pbc="F F F"
C       -1.01896723      -2.93980682       2.54434972
C       -0.83993410      -1.50159739       2.14520008
O       -1.72567142      -0.95457488       1.16221817
C       -0.34080720      -0.97632135       0.83894453
C        0.28066561       0.39157801       0.65427694
C       -0.61463298       1.18292918      -0.21156254
C       -1.10112710       1.90661985      -1.04268459
C       -1.57292383       2.57809680      -2.27029915
O       -2.47353025       3.64277097      -2.02069478
H       -1.54494037      -3.02773674       3.50305546
H       -1.58200698      -3.52119509       1.80583622
H       -0.04740928      -3.43357138       2.67374108
H       -0.61371382      -0.79671315       2.95146787
H       -0.04872828      -1.71009667       0.08202999
H        0.43359801       0.93783744       1.59975100
H        1.28229960       0.27486882       0.21191550
H       -0.71523774       3.05218177      -2.76841344
H       -1.98406910       1.83219602      -2.98293701
H       -3.34803247       3.27742353      -1.86144533
