19
Properties=species:S:1:pos:R:3 Energy:=T 129.0753963=T pbc="F F F"
C        1.52689221      -0.29048349       0.14113302
O        0.17336920      -0.01100536      -0.08999360
C       -0.40608119       0.63084606       1.02587282
C       -0.04859168      -0.14474381       2.29762053
C        0.07553646       2.09658693       1.10449729
C       -0.59873534       2.73312251       2.22100999
C       -1.03895216       3.38846334       3.13055765
C       -1.93031703       0.68708276       0.73407364
O       -2.82702633       0.67114633       1.53472674
H        1.59190566      -0.75389458       1.11234578
H        1.92900774      -0.94857866      -0.64290351
H        2.12032518       0.63047355       0.19822116
H       -0.02062304      -1.18899166       2.04211345
H        0.97265382       0.06814386       2.58342063
H       -0.69585723       0.06932297       3.12324929
H        1.16522512       2.14311739       1.17316253
H       -0.15780451       2.56876101       0.15187460
H       -1.55142421       3.90381461       3.90299065
H       -2.07283207       0.44103630      -0.34552373
