19
Properties=species:S:1:pos:R:3 Energy:=T 640.6673366=T pbc="F F F"
O       -2.81967935      -1.66105855      -3.15715720
C       -2.03386099      -0.98210489      -2.19595349
C       -2.88711471      -0.13129390      -1.22277900
C       -2.03613677       0.05969399       0.03528568
C       -0.96152621       1.17765377      -0.13711459
C        0.10664292       0.07922567      -0.25280320
O        1.29367853       0.09657048      -0.41722735
C       -0.93109634      -1.07200597      -0.03749840
C       -1.22255755      -1.92383569      -1.27682520
H       -3.32580513      -2.34910033      -2.70812259
H       -1.36439919      -0.35770135      -2.79760305
H       -3.20941443       0.82497447      -1.65826638
H       -3.77179061      -0.73840252      -1.00247657
H       -2.62113456       0.12676795       0.96031131
H       -1.04474389       1.75624708      -1.06396469
H       -0.82700924       1.88319921       0.69147233
H       -0.72662464      -1.65834172       0.86736529
H       -0.32152731      -2.31040589      -1.77348528
H       -1.83013075      -2.79814174      -0.99454750
