19
Properties=species:S:1:pos:R:3 Energy:=T 1697.5982589=T pbc="F F F"
C        3.38504473      -0.96750416       1.44193403
C        2.49633291       0.02088368       0.75891402
O        3.04003449       0.56419037      -0.45165338
C        2.42172173       1.84466721      -0.17462108
C        1.87701392       1.32117419       1.15917316
C        0.98854724       0.11710052       0.88745552
C       -0.06007672       0.14014097      -0.22432423
C        0.57852013      -0.74804040       2.04979443
O        0.83581235      -0.50996364       3.20921194
H        2.87945711      -1.72653007       2.04439443
H        3.97393607      -1.46616089       0.66939354
H        4.06480295      -0.42554078       2.11449092
H        3.14423404       2.66314005      -0.11256260
H        1.63991988       2.08126012      -0.91104505
H        1.73341450       1.88271774       2.06921786
H       -0.40369636      -0.88792994      -0.38114543
H       -0.91947900       0.75919574       0.05592020
H        0.35586111       0.52729121      -1.15330405
H       -0.07280966      -1.58539095       1.72214517
