19
Properties=species:S:1:pos:R:3 Energy:=T 204.5081877=T pbc="F F F"
C       -0.25836998       0.88551739      -0.81016104
O        0.33797971      -0.08621818       0.04929403
C        1.72378722       0.23922440       0.12635647
C        2.49670699      -0.07804600       1.39539423
C        3.94386887       0.46789683       1.18830258
C        4.04418962       1.77847254       0.41279274
C        3.01592939       2.33818073      -0.23812967
C        1.67050379       1.75372763       0.02870830
O        0.62300405       1.99955926      -0.90278355
H       -0.43520700       0.47236653      -1.81875919
H       -1.22697211       1.17554583      -0.37646414
H        2.21300078      -0.26107384      -0.72735609
H        2.00266391       0.41762720       2.23651344
H        2.48162478      -1.14871983       1.61477730
H        4.42386988       0.58680283       2.16523401
H        4.53461073      -0.27816887       0.63428896
H        5.03930384       2.21461328       0.33174593
H        3.09266658       3.24274947      -0.83843835
H        1.32386921       2.12209247       1.01650408
