19
Properties=species:S:1:pos:R:3 Energy:=T 164.1256027=T pbc="F F F"
C       -0.69588133       1.97020674       2.81982713
C       -0.93752318       3.16299950       1.89052620
O       -1.35349764       4.21457735       2.30298253
O       -0.63211190       3.03246293       0.55365783
C       -0.23825528       1.78985876      -0.12150161
C        1.25525059       1.35666964      -0.05095109
C        1.62914330       0.87566614      -1.49358187
C        0.47762157       1.32199272      -2.35050362
C       -0.51355244       1.83871604      -1.59639035
H       -1.15212562       1.05394283       2.43869481
H        0.37049285       1.79574080       3.00739531
H       -1.16782138       2.20606196       3.77133688
H       -0.87056816       1.04453315       0.37518718
H        1.86917827       2.19581345       0.27824473
H        1.40702806       0.55769173       0.68027910
H        2.59805713       1.27913370      -1.80953989
H        1.73803780      -0.21589693      -1.50871016
H        0.49716307       1.28096000      -3.43402797
H       -1.47571537       2.18756988      -1.95849479
