19
Properties=species:S:1:pos:R:3 Energy:=T 1818.4634404=T pbc="F F F"
C        0.86390548       1.30949339      -0.11827133
C        1.57582050      -0.01828982      -0.01794626
C        0.06875376       0.03076186       0.01022301
O       -0.64449839      -0.41082629      -1.11469463
C       -1.91561097      -0.95976198      -0.75237698
C       -2.02042863      -0.87403125       0.77295417
O       -1.76731495      -2.13862580       1.42622251
C       -0.48538868      -1.67787892       1.93495765
C       -0.69057882      -0.28696980       1.27139388
H        0.86790029       1.98970364       0.73028656
H        0.87768266       1.81900648      -1.07646846
H        2.02948502      -0.43375211      -0.90618412
H        2.09153390      -0.27615465       0.89988106
H       -2.69904895      -0.39746200      -1.27071349
H       -1.96711330      -2.01006752      -1.05641100
H       -2.94828743      -0.42622454       1.13952633
H       -0.48761658      -1.66043327       3.02857542
H        0.35172120      -2.27833573       1.55889630
H       -0.74161614       0.54579911       1.97643921
