19
Properties=species:S:1:pos:R:3 Energy:=T 127.9434274=T pbc="F F F"
C        1.14632419      -2.07315441      -0.29102164
C       -0.04375949      -1.14074662      -0.16306677
C        0.01087447       0.13746228       0.14925483
C        1.23618658       0.95874556       0.44713674
C       -1.22517088       1.02248875       0.26961560
C       -2.55972925       0.35385124       0.10919452
O       -3.61871173       0.91253205       0.27283547
O       -2.56179198      -0.96575488      -0.21050863
C       -1.40037299      -1.73962008      -0.53378832
H        0.91539325      -3.04967859       0.13920772
H        1.37635351      -2.26625238      -1.34514034
H        2.04856695      -1.70362828       0.19817783
H        1.22341797       1.27805246       1.49101775
H        2.19210762       0.47401494       0.25377197
H        1.19838922       1.87693464      -0.13789235
H       -1.18923998       1.55341899       1.23296536
H       -1.14315302       1.84719475      -0.45822477
H       -1.53884370      -2.69693441      -0.00059840
H       -1.44513954      -1.97466905      -1.61694631
