19
Properties=species:S:1:pos:R:3 Energy:=T 210.2012058=T pbc="F F F"
O       -4.27276021       3.19404999      -2.00869947
C       -3.91144576       2.62243828      -1.01057981
C       -2.51516911       2.63352897      -0.41998878
C       -2.55421042       2.25558885       1.08887242
C       -1.27804566       1.43313256       1.36223827
C       -0.47552299       1.40906022       0.03512984
C       -1.53996523       1.62002376      -1.06520227
C        0.29257381       0.10948292      -0.05714178
O        1.32939953      -0.08589375      -0.63820844
H       -4.63965933       1.99699701      -0.44371070
H       -2.11279696       3.64811533      -0.54746269
H       -2.66380366       3.14623242       1.71773371
H       -3.43196971       1.62910260       1.28977724
H       -0.67940489       1.79806770       2.20286247
H       -1.56141102       0.40487345       1.61601838
H        0.24842210       2.23376923       0.00944031
H       -1.10411221       1.97851900      -2.01175560
H       -2.05268507       0.67574677      -1.29609225
H       -0.21258278      -0.73852688       0.45955961
