19
Properties=species:S:1:pos:R:3 Energy:=T 1584.1407200=T pbc="F F F"
C       -0.47722241      -2.82969795       2.26275340
C       -0.37630094      -1.45373879       2.94732485
C        0.18724298      -1.72844489       4.34915228
O        1.21423216      -1.30177414       4.80746525
C       -1.77123307      -0.88502660       3.14374608
C       -1.86067050       0.52427005       3.66201568
C       -3.29478650       0.91246280       4.01937274
O       -3.76069961       0.57375343       2.68760004
C       -2.43117011       0.18882840       2.29327747
H       -0.92686480      -3.55444088       2.95812300
H       -1.09575212      -2.78820260       1.35843694
H        0.51864131      -3.19518323       2.00199929
H        0.30581839      -0.78157017       2.41676248
H       -0.31795558      -2.62076107       4.80225861
H       -2.46303222      -1.66393766       3.47680002
H       -1.02147418       1.16734082       3.88942896
H       -3.76871994       0.29545796       4.79290655
H       -3.43333652       1.97507782       4.24341731
H       -2.18822553       0.44416563       1.26481895
