19
Properties=species:S:1:pos:R:3 Energy:=T 1378.3638842=T pbc="F F F"
C        1.23525821      -0.46799609      -0.03302567
O       -0.02662008      -0.38624966       0.65058732
C       -0.39195313       0.87415650       1.31354579
C       -1.89224550       1.04225986       1.40522879
C       -2.65513502       1.17393508       2.71754842
C       -2.65365536      -0.12650756       1.98464339
O       -1.77160137      -1.11894997       2.50532922
C       -3.88699961      -0.70774445       1.53371266
C       -4.89729419      -1.24292078       1.15008060
H        2.06395349      -0.50318143       0.67855171
H        1.23190476      -1.39554342      -0.60673465
H        1.38231572       0.37033788      -0.71646132
H        0.07207802       0.77093894       2.28465207
H        0.05982219       1.71996968       0.81500196
H       -2.35252395       1.54636658       0.56951581
H       -2.21102903       1.16582788       3.70851554
H       -3.61742396       1.66294604       2.63490814
H       -0.92126330      -0.90533011       2.06694392
H       -5.72578696      -1.82635523       0.82931619
