19
Properties=species:S:1:pos:R:3 Energy:=T 1645.6490886=T pbc="F F F"
C        2.80203385       1.33002996      -1.98542214
C        2.32450542       1.84741979      -0.64338165
O        1.54718578       2.99555342      -0.50122591
C        0.19972481       2.75065237      -0.08092511
C       -0.28703108       1.34912120      -0.54467174
C        0.19688701       0.20202677       0.42809086
C        1.42384268      -0.41871333      -0.32033904
C        1.62877665       0.70749236      -1.31063930
O        0.35575355       1.06794150      -1.78478610
H        2.53805720       1.94491372      -2.84124870
H        3.72626314       0.75823589      -2.04609957
H        2.96654565       1.62974013       0.20937052
H        0.15769680       2.80229705       1.02033476
H       -0.39960602       3.57881711      -0.48872160
H       -1.36197426       1.33944240      -0.74022237
H        0.47582293       0.66167670       1.38457398
H       -0.57970457      -0.54019880       0.62779700
H        2.29504897      -0.63850115       0.30607907
H        1.14152161      -1.32740683      -0.85108294
