19
Properties=species:S:1:pos:R:3 Energy:=T 2957.0638180=T pbc="F F F"
C       -1.76226646      -0.96147170      -1.02060393
C       -1.98677509      -0.08732617       0.19423798
C       -0.92897241       0.74080340       0.88964313
O        0.32483466       0.88495144       0.30419742
C       -2.07456346       1.47368569       0.23469875
O       -3.23301415       1.43033681       1.05097345
C       -3.12745530      -0.00895804       1.17479256
C       -3.28766771      -0.54887139       2.55470494
C       -4.31925796      -0.84184028       1.47643634
H       -2.09813173      -1.98586781      -0.83419398
H       -2.33551284      -0.57439356      -1.87617807
H       -0.70514542      -0.95823565      -1.32219735
H       -0.96368972       0.81590998       1.97704501
H        0.60462306       0.03786986      -0.06831402
H       -2.00278490       2.25135133      -0.51053780
H       -2.57554673      -1.30869683       2.86044506
H       -3.55856736       0.12757187       3.36204482
H       -4.39752285      -1.84561834       1.07631683
H       -5.26755328      -0.31249035       1.52328830
