19
Properties=species:S:1:pos:R:3 Energy:=T 98.9623165=T pbc="F F F"
C       -2.07905889      -2.05195546       1.72735841
C       -1.67355956      -1.27749648       0.46004681
O       -2.20954041       0.05673656       0.49094778
C       -1.15088556       1.01270016       0.40606281
C        0.11170286       0.22197260       0.21173577
C        1.43544509       0.89070693       0.07548115
C       -0.19866520      -1.09507004       0.22117059
C        0.68086408      -2.24654497       0.01913489
O        1.86862450      -2.20130693      -0.23618594
H       -1.70914398      -3.07790763       1.64374364
H       -1.66303905      -1.59653152       2.63144983
H       -3.17054700      -2.08013923       1.82877134
H       -2.13786634      -1.79705454      -0.39510751
H       -1.34497715       1.72394298      -0.41968718
H       -1.13034103       1.63222653       1.32119790
H        1.65915385       1.49868381       0.96280802
H        2.21613644       0.13248444      -0.05325565
H        1.44747755       1.57194161      -0.78747467
H        0.14907985      -3.22095878       0.09976237
