19
Properties=species:S:1:pos:R:3 Energy:=T 1582.2311982=T pbc="F F F"
C        3.07052901       0.56476281       1.10564185
C        2.99986947      -0.95533561       0.89347455
C        2.61463815      -1.27132823      -0.53137241
C        3.49670198      -0.86461572      -1.71125717
C        3.02168002      -1.75859633      -2.89497074
C        2.13873094      -2.86503208      -2.28820281
O        1.78265105      -3.88575759      -2.82368087
C        1.82079792      -2.43374105      -0.88140703
O        1.21875459      -1.13438837      -0.84179983
H        3.30304659       0.80810655       2.14323637
H        3.85036913       0.99202691       0.47692827
H        2.12962687       1.04898685       0.84656756
H        3.97828673      -1.40455783       1.10609886
H        2.29585480      -1.42914109       1.58951685
H        3.36390760       0.20328033      -1.93070934
H        4.56176219      -1.00501014      -1.47810111
H        2.43461353      -1.19461509      -3.63142900
H        3.84946372      -2.19623746      -3.45687546
H        1.47099538      -3.16079736      -0.15605858
