19
Properties=species:S:1:pos:R:3 Energy:=T 2719.6775412=T pbc="F F F"
O        4.35959758      -1.84634467      -0.58604699
C        3.31577026      -0.93669396      -0.73775232
C        2.18807854      -1.50959637      -1.56646898
C        1.84660119      -2.85456755      -1.11478932
O        2.50661994      -2.65461461      -2.38017197
C        3.68772051       0.58023160      -0.92076201
C        2.32070048       0.94968764      -0.24123445
C        2.93757985      -0.20079594       0.60091866
C        4.28481479       0.58037651       0.52771320
H        4.48317519      -2.22519487      -1.46080319
H        1.49780601      -0.83085147      -2.06224770
H        2.49446580      -3.16332556      -0.31269324
H        0.85309148      -3.27795141      -1.16543485
H        4.13253132       1.03249162      -1.80845075
H        2.26303642       1.93366814       0.24138895
H        1.38749664       0.76827621      -0.78186584
H        2.53260528      -0.68091568       1.49713049
H        4.29334283       1.55518075       1.02806514
H        5.21766653       0.04697026       0.71651523
