19
Properties=species:S:1:pos:R:3 Energy:=T 975.2004375=T pbc="F F F"
C       -0.05339949       0.07458062      -0.02884691
C        1.45021368      -0.07264859      -0.01684735
C        2.25011352       1.27071026      -0.08260897
C        2.93651728       0.79358036      -1.38610999
O        4.14290343       0.06213441      -1.05710784
C        3.36988757      -1.15191155      -0.87842278
C        3.15563544      -1.52390216       0.59613289
O        1.89314739      -0.97340988       0.99237538
C        2.07181861      -0.50110275      -1.36250345
H       -0.39046212       0.62034327       0.85998035
H       -0.37412476       0.61768858      -0.92356992
H       -0.52610166      -0.90902925      -0.03795902
H        1.58412626       2.12989070      -0.24662109
H        2.93994300       1.46410298       0.74765223
H        3.04369956       1.46009149      -2.24145802
H        3.77885740      -1.96240711      -1.48648696
H        3.11735604      -2.60574116       0.75941342
H        3.96769131      -1.12298659       1.21265594
H        1.47095789      -0.91429366      -2.17114878
