19
Properties=species:S:1:pos:R:3 Energy:=T 1476.1888073=T pbc="F F F"
C        1.12073550       0.56089654      -1.25699350
C        1.80294860       1.00022908       0.05684793
O        0.51220471       0.93758718       0.74529779
C        0.48392900      -0.25372709      -0.09617787
C        1.86914961      -0.49689026       0.60778807
C        2.85027754      -1.56938449       0.09554726
C        3.53598425      -2.08123409       1.38144723
C        2.65938746      -1.47717809       2.52945481
O        1.82210644      -0.56268817       1.95469883
H        0.42801562       1.31419636      -1.63579707
H        1.66322979       0.09514947      -2.08441653
H        2.44476949       1.85576221       0.24717028
H       -0.42086748      -0.85737633      -0.11458193
H        2.29357968      -2.35972281      -0.43713467
H        3.56868162      -1.17412074      -0.64036536
H        3.61517414      -3.17657551       1.42450971
H        4.57404827      -1.72636403       1.44488385
H        2.06611561      -2.25261811       3.04481068
H        3.27337980      -0.97310114       3.29564039
