19
Properties=species:S:1:pos:R:3 Energy:=T 2388.3598682=T pbc="F F F"
O        1.39546372       0.23338511      -0.41740733
C       -0.01099566       0.26827150      -0.21019364
C       -0.78263394      -0.44507127      -1.27685184
O       -1.76170702       0.21472149      -2.06976750
C       -2.28779175      -0.79308297      -1.19835716
C       -2.01683811      -2.20462654      -1.65506082
C       -2.11545058      -2.29670678      -3.18866062
C       -0.57108478      -2.15198292      -3.31609732
C       -0.46918040      -1.85440524      -1.79065374
H        1.68460918       1.06916489      -0.79862883
H       -0.18056316      -0.30050333       0.71687392
H       -0.40869389       1.28522207      -0.06135486
H       -3.04776036      -0.47530590      -0.48886474
H       -2.34599282      -3.03965336      -1.04339656
H       -2.56562796      -3.20955295      -3.59335739
H       -2.62888288      -1.40908080      -3.54347349
H       -0.05556087      -3.09392662      -3.52675080
H       -0.20059741      -1.39362692      -4.01082491
H        0.28515845      -2.39535983      -1.22684182
