19
Properties=species:S:1:pos:R:3 Energy:=T 256.6833957=T pbc="F F F"
C       -1.60313421       1.93216426       0.94164320
C       -0.08925664       1.88649876       0.96476953
C        0.36296629       0.78722222       0.35615090
C       -0.81018815      -0.00877060      -0.18927871
O       -0.99305657       0.30606859      -1.58503484
C       -2.27186583       0.00247327      -2.07059998
O       -3.28465573       0.66586591      -1.36826569
C       -3.32653156       0.21749722      -0.02475828
C       -2.00585521       0.46310859       0.67837890
H       -2.04252008       2.35958693       1.84892497
H       -1.93982167       2.48643329       0.06153431
H        0.52611933       2.64477191       1.43569651
H        1.40203709       0.49907057       0.22859364
H       -0.67455113      -1.09547530      -0.12719263
H       -2.33180618       0.37377635      -3.09570809
H       -2.44643806      -1.09555168      -2.00880070
H       -4.16281396       0.72988020       0.45429209
H       -3.53768804      -0.85663434      -0.01845122
H       -2.04207972      -0.12445618       1.59641607
