19
Properties=species:S:1:pos:R:3 Energy:=T 73.1429020=T pbc="F F F"
C        3.85532562       2.30303409      -4.41269450
C        3.53214716       1.10801693      -3.50228223
C        2.98303464       1.47547677      -2.10793860
C        2.79789518       0.24441333      -1.21606127
O        1.78714004      -0.57688471      -1.77378226
C        2.38355040       0.56420400       0.27233897
O        2.95251408       1.28523213       1.04981277
C        1.29291996      -0.37361435       0.71025163
C        0.55272736      -1.31062008       0.57161886
H        4.52497401       3.01414902      -3.91214712
H        4.36066174       1.96228473      -5.33146102
H        2.95695755       2.85993824      -4.70534279
H        2.82743584       0.42399643      -4.00805967
H        4.46111093       0.54226393      -3.34794996
H        3.64857420       2.17096400      -1.58303924
H        2.00741486       1.96095197      -2.20045934
H        3.72564218      -0.32861044      -1.17157012
H        1.91630677      -1.46401289      -1.43973132
H       -0.04402240      -2.19806315       0.63790637
