19
Properties=species:S:1:pos:R:3 Energy:=T 1627.3859099=T pbc="F F F"
C        3.30207392       0.17741873      -5.02294401
C        2.17698142       1.10648571      -4.60571142
O        1.84514940       2.09817644      -5.22011471
C        1.54547432       0.78245865      -3.26889662
O        1.30194729      -0.64611301      -3.11913458
C       -0.10481556      -0.41673356      -3.10475025
C       -0.63024140       0.27177051      -4.33830544
C        0.01606018       1.08613794      -3.23098107
C       -0.66678935       2.17533024      -2.43446568
H        3.84601930      -0.13186651      -4.12976385
H        2.91107058      -0.72498727      -5.49619640
H        3.99311342       0.68126047      -5.70266559
H        2.14599295       1.20203043      -2.45262003
H       -0.72467994      -1.01078801      -2.43640387
H       -0.15645064       0.09593415      -5.30060637
H       -1.71875432       0.31707036      -4.37959564
H       -0.56011985       1.97467314      -1.36080403
H       -0.25580826       3.17317795      -2.62648457
H       -1.73954377       2.20499380      -2.66198698
