19
Properties=species:S:1:pos:R:3 Energy:=T 1787.4662456=T pbc="F F F"
C        0.55206623       0.76268676       0.13175331
C        0.92865739      -0.70096030       0.29966838
C        1.55718707      -1.38832642      -0.92389923
C        2.28083646      -2.67337770      -0.55193716
O        1.89107841      -3.32296752       0.63639600
C        2.07358887      -2.41190406       1.71973851
C        2.24568075      -1.04213853       1.06281119
O        2.67184935      -0.02420526       1.91301880
C        2.94248800      -1.35875326      -0.28317742
H        0.25718481       1.19269977       1.09494416
H        1.36505549       1.36807817      -0.28103286
H       -0.30258932       0.84916493      -0.54797860
H        0.08142547      -1.25802197       0.70707203
H        1.25689901      -1.21408788      -1.95084115
H        2.59033499      -3.36596151      -1.32883378
H        1.17557283      -2.43626023       2.34182977
H        2.92354709      -2.70449563       2.34785188
H        3.60416292      -0.15788510       2.13127027
H        3.89128407      -1.01292392      -0.66480425
