19
Properties=species:S:1:pos:R:3 Energy:=T 469.9463765=T pbc="F F F"
C        1.52616711      -0.10137448       0.06499360
C        0.07078400      -0.02676243       0.03661138
C       -1.13011686       0.05467933      -0.05754988
C       -2.57053566       0.10711314       0.00727299
C       -3.41350068       0.14010778      -1.30269311
O       -3.99182358      -1.15154559      -1.01393206
C       -3.28588172      -1.26097731       0.24059215
C       -4.22490314      -1.33276705       1.43368694
O       -4.66132714      -2.65474914       1.70160880
H        1.95030367       0.67711616       0.70554515
H        1.87155655      -1.05827722       0.46561013
H        1.96300014       0.01847916      -0.92947852
H       -2.89826283       0.88930310       0.70330626
H       -4.19311801       0.90184183      -1.31524717
H       -2.85451802       0.14512205      -2.24202295
H       -2.62269948      -2.13535113       0.25080263
H       -3.67352349      -0.99727444       2.32246012
H       -5.06586073      -0.63180574       1.30037636
H       -5.06252074      -2.99982799       0.89338626
