19
Properties=species:S:1:pos:R:3 Energy:=T 1689.3562083=T pbc="F F F"
C       -0.92664818       1.85976290      -1.33934947
C       -1.08007295       1.11804370      -0.00568917
C       -2.25851240       0.10832364       0.16976994
C       -2.17330003      -0.83505104       1.35044949
C       -1.22114425      -1.10475185       0.20610271
C       -1.18190281      -2.34165542      -0.66928862
O        0.00544904      -3.08329065      -0.54423405
C       -0.11118384      -0.08384760       0.18068369
O        1.09087495      -0.19323749       0.18827366
H       -1.05632694       1.19891623      -2.20473755
H       -1.65547420       2.67332397      -1.43069073
H        0.07226089       2.29977622      -1.40850951
H       -1.02563505       1.82570270       0.82661885
H       -3.20740273       0.21871027      -0.34483149
H       -1.77164164      -0.48335016       2.29698564
H       -2.98775975      -1.54394788       1.45786123
H       -2.01450191      -3.00962469      -0.42115169
H       -1.33020878      -2.03847910      -1.72361764
H        0.71657071      -2.43805392      -0.68885584
