19
Properties=species:S:1:pos:R:3 Energy:=T 475.2454426=T pbc="F F F"
O       -2.05422035       4.89364917      -1.41077341
C       -1.85010599       3.58235688      -0.93383553
C       -0.59553181       3.31816847      -0.07908708
O       -0.16012426       2.34045203      -1.03107785
C       -1.27277464       2.55683080      -1.93626026
C       -1.96403371       1.22632605      -2.19283433
C       -1.03270662       0.11346840      -2.76416285
C       -1.81142932      -1.02053116      -3.26929834
C       -2.65035630      -1.79827266      -3.63902665
H       -1.63622354       5.47334348      -0.76180358
H       -2.76595546       3.22781624      -0.44900305
H        0.10347187       4.16373580      -0.00134141
H       -0.77203709       2.93279057       0.93147518
H       -0.94703095       3.01878223      -2.87872699
H       -2.42058130       0.86239307      -1.26173937
H       -2.79039687       1.41694018      -2.89592259
H       -0.41461400       0.51136342      -3.57790194
H       -0.33490150      -0.22828482      -1.98995240
H       -3.44177970      -2.42059789      -3.98534537
