19
Properties=species:S:1:pos:R:3 Energy:=T 2206.4150349=T pbc="F F F"
C       -3.92701959      -0.39713221       1.88478405
C       -2.62753240       0.31892607       1.64117845
C       -2.19450549       1.71263104       1.38087376
O       -1.02307984       1.64059866       2.15293165
C       -1.11662767       0.18698840       2.13671995
C       -0.39325834      -0.49356266       3.26557201
C       -0.81988499      -0.15722411       0.66548392
O        0.42649108       0.21787458       0.18814062
C       -2.04884303       0.66872664       0.28607380
H       -4.08409771      -0.61317170       2.94698790
H       -4.76167047       0.20985851       1.50464471
H       -3.91490089      -1.34930883       1.33701410
H       -2.75227092       2.63623159       1.30804436
H       -0.62287059      -1.56115597       3.31565458
H        0.69245959      -0.41365966       3.14693637
H       -0.63493293      -0.02834402       4.22665700
H       -1.00419070      -1.22125529       0.49198856
H        0.67360376       0.99778811       0.70897206
H       -2.51416029       0.75832949      -0.68590731
