12
Coordinates from ORCA-job run	Energy:     142.7214297
C          1.01808        0.02094       -0.00776
H          1.74070        2.04785        0.00998
Br        -2.12951       -0.21205        0.03082
Br         2.92125       -0.39149        0.03987
C          0.76476        1.55096        0.00620
H          0.58942       -0.41998       -0.93722
H          0.54440       -0.48303        0.86700
C          0.10239        2.03968        1.24002
N         -0.37774        2.40658        2.22865
N          0.09821        2.00272       -1.21872
H          0.07998        3.04667       -1.27233
H         -0.88328        1.67213       -1.27154
