11
Coordinates from ORCA-job run	Energy:      16.3930626
C          1.18098        0.00569       -0.16119
H          1.93657        2.02448       -0.27363
F         -2.41447        0.03213        0.71671
H          1.89874       -0.28882        0.63300
C          0.96155        1.51365       -0.11972
H          1.59420       -0.29278       -1.14794
H          0.22258       -0.52889        0.00882
H          0.55970        1.80501        0.87639
N          0.03439        1.92335       -1.16921
H         -0.08043        2.96155       -1.12355
H         -0.90201        1.49335       -0.99174
