13
Coordinates from ORCA-job run	Energy:     105.7493856
C          1.04769        0.03227        0.02334
H          1.70313        2.06382       -0.18166
Br        -2.11821       -0.42936       -0.17053
Cl         2.79402       -0.24682        0.32214
C          0.74628        1.54830       -0.04345
H          0.76287       -0.49046       -0.91460
H          0.47585       -0.45457        0.84424
C          0.11526        2.05181        1.25478
H         -0.88309        1.59381        1.41227
H          0.77056        1.77803        2.10494
H         -0.00100        3.15496        1.23660
C         -0.03451        1.96758       -1.22533
N         -0.64271        2.34293       -2.13870
