12
Coordinates from ORCA-job run	Energy:      32.1135841
C          0.45204        0.08734        0.54423
H          1.31292        1.51064       -0.84289
Br        -0.20578       -1.17887       -2.80637
Cl         2.01653       -0.56540        1.10824
C          0.59246        1.51464        0.00626
H          0.09659       -0.58683       -0.24658
H         -0.27934        0.06060        1.37619
N          1.05683        2.40080        1.07180
H          1.17647        3.36667        0.69101
H          1.98603        2.08586        1.42834
C         -0.70645        2.02235       -0.46822
N         -1.71448        2.44482       -0.84978
