13
Coordinates from ORCA-job run	Energy:      38.8507178
C          0.04100        0.10407       -0.17927
H          1.41349        1.66633       -0.78879
F         -0.18152       -0.34428       -1.46948
H          3.19922       -0.23546        1.81726
C          0.47849        1.57542       -0.19163
H          0.83590       -0.52288        0.27678
H         -0.89078       -0.01773        0.41409
N          0.73900        2.03164        1.17203
H          1.07527        3.02142        1.13722
H          1.50343        1.45624        1.59311
N         -0.55207        2.42028       -0.79734
H         -1.44324        2.34198       -0.25413
H         -0.72762        2.12217       -1.78466
