13
Coordinates from ORCA-job run	Energy:      40.7586295
C          1.05217        0.08190       -0.09984
H          1.82026        2.08268       -0.29663
F         -2.48177       -0.69087       -0.50108
Cl         2.35740       -0.43826        1.00328
C          0.84463        1.60782       -0.04921
H          1.34988       -0.21500       -1.12800
H          0.11426       -0.45199        0.16044
N          0.40808        2.08367        1.26002
O          0.26073        3.25377        1.44270
O          0.18622        1.32344        2.15507
N         -0.13015        1.99326       -1.07180
H         -0.20477        3.03552       -1.11254
H         -1.06978        1.60301       -0.82859
