14
Coordinates from ORCA-job run	Energy:      19.2364601
C          0.42408        0.01683       -0.05618
H          1.68940        1.76102       -0.08340
F         -2.68701       -0.36575       -0.14030
Br         4.08792       -0.66795        0.46507
C          0.60174        1.53265       -0.04147
H          0.85666       -0.41247       -0.98474
H          0.92449       -0.44575        0.82107
C          0.02170        2.12487        1.24735
H         -1.06544        1.90725        1.32413
H          0.53660        1.69482        2.13319
H          0.16839        3.22569        1.26043
N         -0.04839        2.11178       -1.21683
H          0.11293        3.14476       -1.23399
H         -1.07898        1.93406       -1.18321
