14
Coordinates from ORCA-job run	Energy:      24.7156492
C          1.15094        0.06016        0.13416
H          1.88135        2.08691        0.22040
F         -2.50572       -0.13752       -0.42691
F          2.03054       -0.31006       -0.86769
C          0.90521        1.57223        0.08338
H          0.19918       -0.49607       -0.00030
H          1.59026       -0.22295        1.11537
C         -0.03490        2.00945        1.21430
H         -1.02443        1.51373        1.11910
H          0.40261        1.74558        2.20092
H         -0.18334        3.10962        1.18269
N          0.35592        1.94825       -1.22055
H          0.24268        2.98737       -1.26968
H         -0.57975        1.50247       -1.36318
