13
Coordinates from ORCA-job run	Energy:      42.3354801
C          0.16194       -0.03945        0.15874
H          1.64698        1.51880        0.31875
Br        -1.76054       -0.31944        0.07963
F          3.05592       -0.03364       -1.46957
C          0.54793        1.45727        0.15207
H          0.64042       -0.56765       -0.69368
H          0.53043       -0.51258        1.09280
N         -0.12563        2.14710        1.24574
O         -0.87208        3.05848        1.03291
O          0.05377        1.79545        2.37067
N          0.27101        2.10424       -1.12872
O          0.60586        3.23770       -1.30206
O         -0.22534        1.50387       -2.03349
