13
Coordinates from ORCA-job run	Energy:      42.0296083
C          0.23328       -0.12818       -0.07108
H          1.52030        1.55625       -0.13293
Br        -1.62693       -0.67754       -0.01167
F          3.20910        0.27955        0.38942
C          0.45568        1.39082       -0.06268
H          0.69494       -0.54856       -0.99084
H          0.76090       -0.56026        0.80637
C          0.03546        2.06524        1.24110
H         -1.03963        1.92614        1.45934
H          0.63624        1.63253        2.07242
H          0.26922        3.15093        1.20107
C         -0.03982        2.06908       -1.26088
N         -0.41171        2.64269       -2.19317
