10
Coordinates from ORCA-job run	Energy:      42.2635182
C          1.06218       -0.04737       -0.20676
H          1.16826        1.97683        0.58054
F         -1.53010        0.07734        1.46701
F          2.34273       -0.11639       -0.67684
C          0.58829        1.37518       -0.12087
H          0.38538       -0.62714       -0.85907
H          1.01163       -0.48356        0.81689
H         -0.40063        1.34762        0.31065
C          0.43477        2.03381       -1.39691
N          0.28567        2.60763       -2.39338
