11
Coordinates from ORCA-job run	Energy:     127.6195324
C          1.02216       -0.00387        0.00131
H          1.68020        2.03573       -0.01019
Br        -2.07119       -0.21990       -0.00003
Br         2.93962       -0.32667        0.01325
C          0.72223        1.51742       -0.00031
H          0.60164       -0.50385       -0.90446
H          0.58550       -0.50490        0.89852
C          0.08778        2.02078        1.23852
N         -0.38245        2.39967        2.22560
C          0.07450        2.01539       -1.23495
N         -0.40461        2.38913       -2.21941
