13
Coordinates from ORCA-job run	Energy:      42.1835815
C          0.30422       -0.02157       -0.31240
H          1.64644        1.65687       -0.43478
Br        -1.55058       -0.48944        0.03767
F          2.91196       -0.14078        2.16478
C          0.56303        1.49150       -0.24063
H          0.58274       -0.39978       -1.31882
H          0.93315       -0.54578        0.43688
N          0.22563        2.01421        1.08543
H          0.45282        3.03486        1.12332
H          0.81310        1.53565        1.80569
N         -0.20289        2.19197       -1.27289
H          0.06755        3.20187       -1.27727
H         -1.22489        2.13529       -1.06456
