13
Coordinates from ORCA-job run	Energy:      37.9956979
C          0.97980        0.04569       -0.01232
H          1.91052        1.98729       -0.16066
F         -2.48604       -0.46027       -0.57810
F          1.87165       -0.39704        0.94841
C          0.88886        1.57712       -0.00047
H          1.33644       -0.30098       -1.00530
H         -0.01571       -0.40279        0.18544
N          0.38231        2.05467        1.28227
O         -0.62006        2.70076        1.34665
O          0.99017        1.82221        2.28351
N          0.04274        2.02467       -1.11222
H          0.03614        3.06997       -1.14800
H         -0.93718        1.68160       -0.98731
