15
Coordinates from ORCA-job run	Energy:      16.8445757
C          0.20825       -0.10732       -0.19795
H          1.61436        1.51920       -0.33747
Cl        -1.52543       -0.47557        0.04277
F          3.28441        0.17821        1.66441
C          0.51923        1.40170       -0.17947
H          0.52414       -0.54111       -1.17086
H          0.78541       -0.61785        0.60192
C          0.17105        2.03080        1.17613
H         -0.91754        1.95862        1.38469
H          0.72610        1.51803        1.99006
H          0.45937        3.10338        1.18426
C         -0.19983        2.13779       -1.31799
H          0.08973        1.70150       -2.29789
H         -1.30271        2.06943       -1.20634
H          0.08681        3.21063       -1.31924
