13
Coordinates from ORCA-job run	Energy:      34.6781499
C          0.10772       -0.01626       -0.06868
H          1.63028        1.51148       -0.26490
Cl        -1.65779       -0.19429        0.13036
Cl         3.65209       -0.45340        0.87835
C          0.52699        1.46181       -0.12540
H          0.41448       -0.53442       -1.00237
H          0.61106       -0.52235        0.78225
N          0.18952        2.12629        1.13931
H          0.53184        3.11419        1.10620
H          0.69912        1.65413        1.92044
N         -0.11155        2.12706       -1.25313
O         -0.83612        3.06225       -1.08512
O          0.10135        1.74619       -2.36411
