12
Coordinates from ORCA-job run	Energy:      97.4695214
C          0.27996       -0.04781        0.09711
H          1.69946        1.67231        0.55407
Br        -1.64366       -0.28104       -0.10494
Cl         3.23330       -0.20971       -0.32198
C          0.66176        1.47272        0.19815
H          0.71328       -0.51133       -0.83341
H          0.57192        1.89833       -0.80750
N          0.74262       -0.82486        1.23933
O          0.91396       -0.30791        2.30265
O          0.77551       -2.01686        1.16816
C         -0.25103        2.19404        1.09347
N         -0.98885        2.79465        1.74654
