15
Coordinates from ORCA-job run	Energy:     106.4549833
C          0.99836       -0.02510       -0.00138
H          1.69502        1.92785        0.54822
Cl        -2.06177       -0.65010        0.61852
Cl         2.57556       -0.26691       -0.82238
C          0.75560        1.51319        0.13857
H          0.23993       -0.50611       -0.67185
N          1.03762       -0.75004        1.26652
O          1.23194       -0.19217        2.30615
O          1.00183       -1.94325        1.24745
C         -0.34758        2.03653        1.08834
H         -1.38876        1.95247        0.71347
H         -0.30746        1.58906        2.09815
H         -0.16763        3.12433        1.23889
C          0.47991        2.08722       -1.20008
N          0.26517        2.56596       -2.22821
