13
Coordinates from ORCA-job run	Energy:      36.3485957
C          0.17852       -0.04344        0.07457
H          1.47427        1.68543        0.27695
Br        -1.69684       -0.46915       -0.23972
Cl         3.86121       -0.22722       -0.17491
C          0.40002        1.48346        0.07193
H          0.77994       -0.48065       -0.75289
H         -0.20679        1.96532        0.87058
N          0.59663       -0.66119        1.32404
O          1.02537       -0.00673        2.22776
O          0.52906       -1.84685        1.44461
N          0.06851        2.06544       -1.22637
H          0.32860        3.07816       -1.21083
H         -0.96345        2.01375       -1.38249
