12
Coordinates from ORCA-job run	Energy:     200.9250166
C          1.13058       -0.03180        0.11156
H          1.68000        2.01314        0.17418
Cl        -1.70714       -0.24375       -0.36617
F          2.49502       -0.09099        0.02965
C          0.72983        1.47663        0.11123
H          0.74744       -0.53232       -0.81920
H          0.25194        1.74547       -0.85660
N          0.71312       -0.81280        1.25470
O          0.75117       -0.32983        2.34526
O          0.76437       -2.00301        1.16105
C         -0.09260        2.07183        1.18035
N         -0.72453        2.60818        1.98643
