14
Coordinates from ORCA-job run	Energy:      60.8979366
C          0.33364       -0.04864       -0.01231
H          1.62737        1.66900       -0.01161
F         -0.99122       -0.37319        0.24912
H          2.37706       -0.55219        0.59813
C          0.52791        1.46970       -0.01903
H          0.60931       -0.50017       -0.98064
C          1.34221       -0.63806        0.92885
N          1.03689       -1.20197        2.03926
C         -0.11179        2.11098        1.22046
H         -1.22143        2.09722        1.13887
H          0.16733        1.53919        2.12866
H          0.22212        3.16315        1.35048
C         -0.03625        2.05791       -1.24191
N         -0.46853        2.51019       -2.21387
