14
Coordinates from ORCA-job run	Energy:      51.9286321
C          0.21896       -0.11136        0.08799
H          1.61575        1.45477        0.08646
Br        -1.67291       -0.49533       -0.21516
Cl         3.34236       -0.14824       -0.65421
C          0.52294        1.38877        0.06982
H          0.78927       -0.59497       -0.72654
C          0.60433       -0.71613        1.37067
N          0.83940       -1.16510        2.40935
C         -0.05983        2.14708        1.27038
H         -1.15650        2.05880        1.31009
H          0.35952        1.74846        2.20704
H          0.19997        3.21393        1.20947
C          0.03731        2.00338       -1.17650
N         -0.32258        2.52301       -2.14226
