12
Coordinates from ORCA-job run	Energy:      40.6067955
C          1.05639       -0.02692        0.04734
H          1.98362        1.88419        0.59748
F         -2.22551        0.04765       -0.22803
F          2.26093       -0.39041       -0.52882
C          1.01332        1.50619        0.21288
H          0.23735       -0.34799       -0.62714
H          0.86413        1.94123       -0.80300
C          0.87634       -0.76142        1.30681
N          0.69219       -1.33986        2.29225
N         -0.03910        1.95076        1.12157
O         -0.91583        2.64774        0.71850
O          0.05557        1.73510        2.29247
