13
Coordinates from ORCA-job run	Energy:     179.5080437
C          0.99791       -0.06520        0.00118
H          1.72691        1.92884        0.05703
Br        -2.12545       -0.05999        0.06849
Cl         2.71778       -0.35297       -0.39761
C          0.73118        1.47540        0.02263
H          0.39257       -0.54166       -0.80441
C          0.75965       -0.73832        1.29736
N          0.60786       -1.23541        2.33311
C          0.09875        2.03516        1.24389
N         -0.38729        2.51340        2.18006
N          0.07326        1.93567       -1.20319
O         -0.44933        3.01021       -1.23773
O          0.31593        1.39424       -2.23992
