12
Coordinates from ORCA-job run	Energy:      58.9314433
C          0.20866       -0.07894        0.03385
H          1.59173        1.55604        0.08670
Cl        -1.52736       -0.39110       -0.14111
F          2.94067       -0.15744       -0.17846
C          0.50521        1.41691        0.03998
H          0.74642       -0.52549       -0.83293
H          0.07916        1.90731        0.94247
C          0.63273       -0.70663        1.29067
N          0.94560       -1.18065        2.29893
N          0.03651        2.03559       -1.19774
H          0.59253        2.89780       -1.39153
H         -0.96085        2.32304       -1.08148
