14
Coordinates from ORCA-job run	Energy:     164.4552620
C          1.05112       -0.02465        0.02078
H          1.80169        1.95511        0.26245
Cl        -2.09241       -0.14815       -0.04370
F          2.39294       -0.22649       -0.22031
C          0.79909        1.52242        0.10746
H          0.51409       -0.46696       -0.85346
C          0.74224       -0.82448        1.21436
N          0.51328       -1.49902        2.12879
N         -0.01251        1.99658        1.23344
O         -0.78252        2.89861        1.07641
O          0.31911        1.72197        2.34651
N          0.29233        2.02587       -1.18126
H          0.31324        3.07027       -1.19402
H         -0.70153        1.73442       -1.33755
