14
Coordinates from ORCA-job run	Energy:      36.6270338
C          0.18683       -0.07810        0.27039
H          1.62054        1.52998        0.41666
Cl        -1.52093       -0.44450       -0.08234
F          2.30619       -0.26901       -2.04887
C          0.53331        1.42668        0.23846
H          0.76233       -0.58334       -0.50617
C          0.60533       -0.70015        1.52788
N          0.95892       -1.19353        2.51373
C         -0.17965        2.17676        1.28192
N         -0.72602        2.74350        2.12710
C          0.23591        2.04046       -1.13589
H          0.77826        1.48225       -1.91787
H         -0.84487        2.00970       -1.38640
H          0.58825        3.09238       -1.18031
