15
Coordinates from ORCA-job run	Energy:      55.0643680
C          0.41945       -0.01794        0.05985
H          1.71163        1.75414        0.06500
Cl        -2.49188       -0.51075       -0.17253
Br         3.68743       -0.44273       -0.34316
C          0.62860        1.50104        0.05061
H          0.82048       -0.54212       -0.83532
C          0.68697       -0.72166        1.32099
N          0.87842       -1.25615        2.32798
C         -0.03545        2.15775        1.27220
H         -1.11503        1.89957        1.31538
H          0.45142        1.80535        2.20767
H          0.07368        3.26043        1.22764
N          0.04775        2.01966       -1.18931
H          0.20483        3.04973       -1.26672
H         -0.98215        1.83206       -1.21081
