14
Coordinates from ORCA-job run	Energy:     104.1093565
C          0.69578        0.00959        0.01618
H          1.72669        1.91000       -0.06535
Cl        -2.11028       -0.38231       -0.21721
F          3.30316       -0.12552       -0.03702
C          0.68987        1.54242        0.00553
H          0.82508       -0.57711       -0.91677
C          0.68218       -0.72830        1.29855
N          0.62858       -1.30768        2.29987
C          0.04093        2.09203        1.27873
H         -0.97264        1.65875        1.42088
H          0.66978        1.80632        2.14892
H         -0.02347        3.19325        1.22183
C          0.01047        2.04744       -1.19748
N         -0.51014        2.43209       -2.15539
