15
Coordinates from ORCA-job run	Energy:      34.7926170
C          0.43614       -0.12376       -0.00339
H          1.44654        1.54094       -0.95374
Cl         0.09876       -0.97470       -1.53662
F          3.98768       -0.04122        0.94548
C          0.61839        1.39734       -0.22269
H          1.38160       -0.54671        0.39630
C         -0.63398       -0.42387        0.95879
N         -1.47654       -0.65964        1.71689
N          0.98851        2.04733        1.03744
H          1.17730        3.06134        0.86202
H          1.87655        1.62822        1.39699
C         -0.64196        2.06781       -0.79485
H         -0.92289        1.61716       -1.76908
H         -1.49615        1.96910       -0.09195
H         -0.45220        3.14901       -0.96427
