15
Coordinates from ORCA-job run	Energy:     161.8771913
C          1.04087       -0.03390        0.03778
H          1.74717        2.00466       -0.12029
Cl        -2.14325       -0.25236       -0.13564
Cl         2.78916       -0.35263       -0.18816
C          0.76172        1.50951       -0.01433
H          0.54531       -0.56638       -0.80499
C          0.66629       -0.67981        1.30619
N          0.38826       -1.22774        2.28708
C          0.15041        2.10643        1.28364
H         -0.88447        1.73692        1.46160
H          0.77625        1.85427        2.16821
H          0.10781        3.21342        1.20520
N         -0.03179        1.87400       -1.18791
O         -0.80728        2.78063       -1.12985
O          0.25998        1.44039       -2.26195
