13
Coordinates from ORCA-job run	Energy:     151.0527874
C          0.75756       -0.06648       -0.09701
H          1.74629        1.65610        0.65846
F         -1.54393        0.05695        0.83509
H          1.62888       -0.19820       -0.73300
C          0.77458        1.47724        0.17508
H         -0.08246       -0.54770       -0.70553
C          0.98420       -0.92311        1.08284
N          1.16705       -1.66797        1.95093
N         -0.21998        2.05863        1.07509
O         -1.10982        2.75232        0.67817
O         -0.08008        1.91303        2.25231
C          0.71475        2.13171       -1.15474
N          0.61131        2.61467       -2.19686
