12
Coordinates from ORCA-job run	Energy:      41.0468802
C          0.99241       -0.05453       -0.02708
H          1.55370        1.98361        0.48184
Br        -2.39988       -0.17691        0.30577
Br         2.80133       -0.32830       -0.69728
C          0.67723        1.45546        0.04019
H          0.27996       -0.59025       -0.68208
H         -0.19088        1.64093        0.71010
C          0.90928       -0.68552        1.29514
N          0.80731       -1.17024        2.33365
N          0.36993        2.03926       -1.25934
O          0.10756        3.20106       -1.32906
O          0.25496        1.35823       -2.23456
