14
Coordinates from ORCA-job run	Energy:      96.2206131
C          0.02700       -0.04461        0.23435
H          1.58137        1.51461        0.35914
F         -1.30363       -0.12599        0.56629
F          2.36362       -0.24979       -0.92533
C          0.49261        1.43484        0.17300
H          0.12871       -0.52631       -0.77150
C          0.78356       -0.81274        1.24053
N          1.35998       -1.42072        2.03974
C         -0.18689        2.24329        1.18768
N         -0.76781        2.87503        1.96158
C          0.25415        2.00696       -1.22732
H          0.97606        1.51458       -1.91733
H         -0.77494        1.80100       -1.58272
H          0.43653        3.10228       -1.27231
