15
Coordinates from ORCA-job run	Energy:      35.4148755
C          0.03246       -0.03801        0.15143
H          1.62699        1.44716        0.23693
F         -1.35050       -0.09028        0.14647
H          2.81949       -0.47425       -0.99922
C          0.51851        1.42951        0.13335
H          0.40831       -0.56857       -0.74848
C          0.54723       -0.77140        1.31605
N          0.96299       -1.35371        2.22559
N         -0.07033        2.19332        1.23079
O         -0.75239        3.15266        1.02011
O          0.15336        1.88233        2.36232
C          0.20193        2.06056       -1.23514
H          0.70555        1.48765       -2.04377
H         -0.89133        2.06795       -1.42881
H          0.58498        3.10305       -1.27020
