16
Coordinates from ORCA-job run	Energy:      16.1103625
C          0.13789       -0.09158        0.27747
H          1.59183        1.52306        0.33646
F         -1.22488       -0.28271        0.12607
Cl         3.18581       -0.48013       -2.19255
C          0.49272        1.41020        0.19964
H          0.66058       -0.63626       -0.53636
C          0.56828       -0.68765        1.55004
N          0.90740       -1.15727        2.55171
C         -0.22025        2.22716        1.29039
H         -1.32345        2.14976        1.18271
H          0.06586        1.86830        2.30123
H          0.06929        3.29716        1.21717
C          0.13519        1.96913       -1.18407
H          0.67805        1.41143       -1.97643
H         -0.95646        1.88786       -1.37471
H          0.42963        3.03816       -1.25405
