16
Coordinates from ORCA-job run	Energy:      18.5874970
C          0.21692       -0.07879        0.29797
H          1.62344        1.57761        0.32725
F         -1.14236       -0.31032        0.17750
F          2.61938       -0.43375       -2.47097
C          0.52547        1.43288        0.21522
H          0.73762       -0.60704       -0.52850
C          0.69369       -0.66376        1.55936
N          1.06916       -1.12456        2.55247
C         -0.18555        2.22684        1.32431
H         -1.28829        2.11803        1.24166
H          0.13392        1.87493        2.32754
H          0.07150        3.30483        1.24675
C          0.11934        1.98316       -1.15796
H          0.65944        1.44314       -1.96418
H         -0.97367        1.87010       -1.32330
H          0.38076        3.06038       -1.23231
