13
Coordinates from ORCA-job run	Energy:      82.7407838
C          0.25852       -0.02060        0.08417
H          1.70882        1.61741       -0.03504
Br        -1.66539       -0.34851       -0.04517
H          2.99882       -0.16002        0.38820
C          0.60622        1.48897       -0.00970
H          0.73668       -0.55124       -0.77520
C          0.75156       -0.53954        1.42097
N          0.53772       -1.73116        1.83967
C          0.16430        2.19589        1.20914
N         -0.14613        2.70489        2.20196
N          0.07612        2.11289       -1.22975
H         -0.04267        3.14364       -1.08859
H         -0.85108        1.73023       -1.50762
