12
Coordinates from ORCA-job run	Energy:     132.8605877
C          1.03501       -0.04711       -0.00063
H          1.70989        1.93110        0.24294
Br        -2.07544       -0.16881       -0.00111
Cl         2.76774       -0.27332       -0.46277
C          0.72499        1.47776        0.08046
H          0.43277       -0.52682       -0.80044
C          0.83164       -0.76775        1.27847
N          0.72615       -1.28250        2.31165
C         -0.06519        1.98892        1.23011
N         -0.66647        2.46231        2.10181
C          0.21162        2.02257       -1.19817
N         -0.16543        2.43421       -2.21304
