13
Coordinates from ORCA-job run	Energy:     137.4412502
C          1.01146       -0.07117        0.06093
H          1.81042        1.92574        0.03922
Br        -2.16152       -0.02589       -0.40176
Br         2.81509       -0.48473       -0.52203
C          0.81180        1.45054        0.09785
H          0.36398       -0.49341       -0.72715
H          0.22588        1.77852       -0.80722
C          0.70874       -0.77033        1.37745
H          1.50395       -0.57904        2.12019
H         -0.25892       -0.42093        1.79768
H          0.61922       -1.85916        1.20377
C          0.19970        2.03923        1.28974
N         -0.26122        2.49193        2.24909
