12
Coordinates from ORCA-job run	Energy:       0.8548848
C          1.02937       -0.08527       -0.01726
H          1.72606        1.83325        0.75120
Br        -2.92517        0.03706       -0.04801
Br         2.75915       -0.59222       -0.73861
C          0.93802        1.43635        0.07638
H          0.24034       -0.45321       -0.70777
H         -0.05695        1.73841        0.46673
H          1.07012        1.88448       -0.93111
C          0.83404       -0.73291        1.35160
H          1.61986       -0.39216        2.05947
H         -0.16249       -0.46749        1.76412
H          0.89179       -1.83783        1.25732
