14
Coordinates from ORCA-job run	Energy:       8.7095974
C          0.94157       -0.08269       -0.12248
H          1.33746        1.91173        0.63116
Br        -3.02735       -0.02222        1.12835
H          1.94227       -0.20095       -0.59086
C          0.59577        1.40832       -0.03002
H          0.18799       -0.60364       -0.75268
H         -0.41216        1.53817        0.41838
C          0.96720       -0.73083        1.25925
H          1.73417       -0.24361        1.89833
H         -0.02439       -0.64146        1.75017
H          1.21964       -1.80753        1.16061
N          0.61665        2.01926       -1.34305
O          1.37083        2.91480       -1.57559
O         -0.13536        1.64596       -2.19176
