16
Coordinates from ORCA-job run	Energy:      43.9732459
C          0.27798       -0.03078        0.07292
H          1.73368        1.56510        0.31571
Cl        -3.08328        0.04364       -0.03119
Cl         3.79722       -0.66634       -0.79469
C          0.63678        1.46676        0.15519
H          0.82485       -0.47402       -0.78744
C          0.60970       -0.84516        1.32099
H          1.68351       -0.74035        1.58244
H         -0.02224       -0.53719        2.17688
H          0.39092       -1.91478        1.12184
N         -0.05981        2.14179        1.24788
O         -0.81298        3.04317        1.02876
O          0.18937        1.86043        2.37958
N          0.31769        2.08407       -1.13616
H          0.60660        3.08948       -1.12941
H         -0.71039        2.02386       -1.32352
