17
Coordinates from ORCA-job run	Energy:      33.8221703
C          0.29657       -0.07032        0.07281
H          1.75330        1.54830        0.01323
Br        -3.14945       -0.12030       -0.08858
H          3.34698       -0.46876       -0.44582
C          0.64639        1.43509        0.02733
H          0.77349       -0.57421       -0.79638
C          0.71134       -0.79606        1.35045
H          1.79803       -0.67839        1.53858
H          0.13388       -0.41473        2.21768
H          0.47418       -1.87499        1.24584
C          0.12932        2.18387        1.27112
H         -0.97051        2.07218        1.36929
H          0.62002        1.80579        2.19261
H          0.38225        3.26272        1.19418
N          0.10923        2.00710       -1.20267
O         -0.68035        2.90255       -1.17732
O          0.47352        1.58438       -2.26000
