16
Coordinates from ORCA-job run	Energy:      68.9190660
C          0.11184       -0.04157        0.13121
H          1.65939        1.54389        0.13006
F         -1.26829       -0.13931        0.06536
Br         3.22590       -0.68354       -0.90127
C          0.54759        1.44367        0.08997
H          0.50571       -0.56131       -0.76725
C          0.59562       -0.79051        1.38593
H          1.56864       -0.41321        1.76613
H         -0.15135       -0.69256        2.20034
H          0.71745       -1.87448        1.16887
C         -0.05368        2.20395        1.26955
H         -1.14820        2.04016        1.26925
H          0.38310        1.81666        2.21454
H          0.15862        3.28847        1.19285
C          0.12855        2.05543       -1.17483
N         -0.18125        2.51521       -2.19262
