14
Coordinates from ORCA-job run	Energy:      63.5074728
C          0.10402       -0.06785        0.09227
H          1.61704        1.44822        0.12432
Br        -1.82412       -0.28859       -0.06866
F          2.80625       -0.27132       -0.51404
C          0.52700        1.41336        0.07980
H          0.57419       -0.54086       -0.79901
C          0.62897       -0.78601        1.34723
H          1.70037       -0.54654        1.51684
H          0.04729       -0.48674        2.24451
H          0.56226       -1.88221        1.21575
C          0.08281        2.17002        1.23931
N         -0.25109        2.74082        2.18508
C          0.19699        2.08988       -1.17538
N         -0.01689        2.56212       -2.20918
