16
Coordinates from ORCA-job run	Energy:      44.6174129
C          0.05093       -0.07723        0.14284
H          1.61094        1.31343        0.11902
Cl        -1.73513       -0.19081        0.02064
Cl         3.23623       -0.22592       -0.92320
C          0.51879        1.37586        0.08894
H          0.47699       -0.57499       -0.73818
C          0.54068       -0.78550        1.39666
H          1.63649       -0.73981        1.41352
H          0.12300       -0.30862        2.29509
H          0.23218       -1.83747        1.38545
C          0.02198        2.14302        1.24582
N         -0.34798        2.77227        2.14023
C          0.13050        2.08133       -1.21247
H          0.52043        1.50969       -2.06373
H         -0.95906        2.18066       -1.31113
H          0.57595        3.08554       -1.24596
