17
Coordinates from ORCA-job run	Energy:      36.2209310
C          0.82868       -0.04608        0.03751
H          1.89900        1.80982        0.39573
Br        -3.13839       -0.48136       -0.01621
F          1.78767       -0.47145       -0.86756
C          0.87047        1.49831        0.11003
H         -0.16238       -0.37684       -0.33126
C          1.08662       -0.73347        1.37895
H          2.06537       -0.42140        1.79849
H          0.27883       -0.50107        2.10294
H          1.09074       -1.83480        1.23388
C         -0.10248        2.08348        1.14598
H         -1.14642        1.78121        0.92284
H          0.16412        1.75395        2.17108
H         -0.04095        3.19186        1.13613
N          0.57292        2.04251       -1.21862
H          0.65895        3.08495       -1.20253
H         -0.40605        1.79482       -1.49743
