16
Coordinates from ORCA-job run	Energy:      53.2632236
C          0.44888        0.00411       -0.08766
H          1.06393        1.74848       -1.22390
Cl        -0.49333       -0.71652       -1.42607
F          3.67256       -0.64767        1.32287
C          0.56275        1.54349       -0.25033
H          1.47222       -0.42335       -0.15002
C         -0.15100       -0.43337        1.25307
H          0.46080       -0.04781        2.09662
H         -1.19563       -0.07932        1.36965
H         -0.15569       -1.54228        1.31522
N          1.38194        2.11208        0.82021
H          1.47827        3.14168        0.66732
H          2.33955        1.69543        0.78626
N         -0.74284        2.20987       -0.26736
H         -1.25899        2.05931        0.62886
H         -1.32056        1.87485       -1.07078
