14
Coordinates from ORCA-job run	Energy:      23.3781605
C          0.60728       -0.19222        0.33318
H          1.86243        1.54187        0.73310
F         -0.39417        1.57684       -2.63519
H          1.15881       -0.48561       -0.58551
C          0.79106        1.32045        0.53625
H         -0.46736       -0.42709        0.17567
H         -0.60118        2.08818       -1.81886
C          1.16735       -1.00316        1.50146
H          2.25225       -0.79377        1.62440
H          0.64699       -0.76208        2.44961
H          1.03833       -2.08677        1.29651
N         -0.04414        1.89254        1.57674
O          0.02424        3.06310        1.79672
O         -0.84499        1.23262        2.16830
