14
Coordinates from ORCA-job run	Energy:      21.7588879
C          0.99134       -0.01238        0.03124
H          1.20500        2.02657        0.76036
F         -2.39089       -0.39620       -0.38472
Br         2.82044       -0.13274       -0.61817
C          0.53643        1.45277        0.08159
H          0.33412       -0.57969       -0.66250
H         -0.50157        1.51239        0.47928
C          0.90432       -0.65579        1.41403
H          1.22224       -1.71840        1.35648
H          1.56147       -0.12347        2.13448
H         -0.14159       -0.62355        1.78732
N          0.57524        2.05176       -1.24942
H          0.27492        3.05056       -1.17286
H         -0.10957        1.55884       -1.86783
