16
Coordinates from ORCA-job run	Energy:      78.7383285
C          0.85072       -0.06918       -0.02037
H          1.85260        1.82831        0.22033
Cl        -2.38561       -0.07675        0.41201
H          1.75401       -0.36937       -0.59593
C          0.81796        1.48540        0.05280
H         -0.00098       -0.45085       -0.61683
C          0.86377       -0.81696        1.32078
H          1.85784       -0.74991        1.80219
H          0.08572       -0.44050        2.01932
H          0.62785       -1.89048        1.13837
C          0.04965        2.06928        1.17396
N         -0.53253        2.57881        2.03342
C          0.28047        2.05554       -1.27025
H          0.86857        1.65934       -2.12320
H         -0.78863        1.77211       -1.42512
H          0.34161        3.16444       -1.27267
