17
Coordinates from ORCA-job run	Energy:      40.4236076
C          0.57889       -0.16204       -0.02185
H          1.38854        1.53856       -1.08945
Cl         0.02793       -0.97772       -1.51569
H          4.08914        0.11377        0.73453
C          0.69441        1.37088       -0.23555
H          1.59476       -0.55561        0.19953
C         -0.33750       -0.55508        1.14132
H          0.01577       -0.09499        2.08786
H         -1.38476       -0.24272        0.95188
H         -0.32675       -1.65838        1.26810
N          1.25873        2.00914        0.95479
H          1.41035        3.02598        0.76546
H          2.19517        1.59445        1.16243
C         -0.64527        2.03708       -0.58676
H         -1.08405        1.59031       -1.50277
H         -1.36995        1.94350        0.24786
H         -0.48689        3.11928       -0.78076
