14
Coordinates from ORCA-job run	Energy:      61.8682969
C          0.18200       -0.07442        0.06931
H          1.71504        1.49818        0.12163
Br        -1.76093       -0.20976       -0.03868
H          2.60128       -0.27512       -0.56612
C          0.60795        1.40224        0.06083
H          0.58817       -0.57964       -0.84155
C          0.66459       -0.78887        1.35254
H          1.71836       -0.56473        1.65018
H         -0.00125       -0.48162        2.18207
H          0.57957       -1.88564        1.23103
C          0.07231        2.11591        1.22799
N         -0.31738        2.73527        2.12334
C          0.22432        2.07101       -1.19739
N         -0.05777        2.63276       -2.17194
