17
Coordinates from ORCA-job run	Energy:      37.6184069
C          0.08655       -0.09231        0.09160
H          1.58450        1.47710        0.08683
F         -1.28972       -0.23603        0.02351
F          3.57631       -0.29713       -0.48536
C          0.47429        1.40466        0.06980
H          0.53186       -0.57226       -0.80741
C          0.60589       -0.83976        1.32128
H          1.70847       -0.74429        1.39906
H          0.13717       -0.45529        2.25004
H          0.34822       -1.91629        1.23417
C         -0.07058        2.18962        1.27471
H         -1.17866        2.13266        1.31196
H          0.34778        1.79972        2.22438
H          0.22975        3.25616        1.19699
N          0.00060        2.00700       -1.17876
H          0.33890        2.99454       -1.24648
H         -1.04542        2.00821       -1.20922
