17
Coordinates from ORCA-job run	Energy:      35.0807206
C         -0.16462       -0.11721        0.02108
H          1.50353        1.23719       -0.26425
F         -1.53390       -0.07467        0.22517
Cl         4.12293        0.69489        1.08280
C          0.41181        1.31452       -0.06772
H          0.02839       -0.62352       -0.95022
C          0.47770       -0.96689        1.11951
H          1.57614       -1.02638        0.97155
H          0.26221       -0.55315        2.12583
H          0.06066       -1.99534        1.08210
C          0.21452        2.12609        1.22405
H         -0.86421        2.21699        1.47132
H          0.74522        1.65563        2.07644
H          0.63780        3.14541        1.09795
N         -0.20069        2.01352       -1.19922
H          0.25012        2.94918       -1.32321
H         -1.22239        2.15855       -1.02784
