15
Coordinates from ORCA-job run	Energy:     109.1597291
C          0.06516       -0.01123        0.07426
H          1.66773        1.46665        0.06205
F         -1.31821       -0.05297       -0.01594
Cl         3.23304       -0.63125       -0.53026
C          0.55760        1.44641        0.06689
H          0.47869       -0.49400       -0.84074
C          0.50617       -0.78768        1.31939
H          1.37329       -0.31104        1.82537
H         -0.34391       -0.82333        2.03101
H          0.79915       -1.82453        1.04873
C          0.14913        2.18356        1.27448
N         -0.14548        2.72578        2.24848
N          0.08168        2.09769       -1.15032
H          0.31299        3.11477       -1.14206
H         -0.95304        1.98597       -1.24442
