14
Coordinates from ORCA-job run	Energy:     106.5343995
C          0.78321        0.06411       -0.11696
H          1.83758        1.67509        0.80144
Cl        -2.04960       -1.37058        0.88850
H          1.48595       -0.20294       -0.93725
C          0.91344        1.55665        0.20001
H         -0.22904       -0.17926       -0.49120
N          1.15870       -0.72658        1.05166
H          1.52875       -1.65507        0.75257
H          0.32654       -0.91915        1.64275
N         -0.23617        2.01670        0.96834
O         -1.21197        2.43992        0.41102
O         -0.18479        2.03870        2.15552
C          1.05218        2.33128       -1.03812
N          1.22304        2.91435       -2.03267
