13
Coordinates from ORCA-job run	Energy:      14.2640532
C          0.13285       -0.20206        0.05535
H          1.55658        1.39228        0.31364
Br        -3.63735        0.96550       -0.33069
F          4.07302        0.28335        1.45555
C          0.48734        1.25452        0.03936
H         -0.88168       -0.50912       -0.17944
H         -0.13949        1.79141        0.78411
N          1.01588       -1.08541        0.34687
H          3.47215       -0.49560        1.40665
H          0.77220       -2.08609        0.36031
N          0.26003        1.80851       -1.29047
H          0.52162        2.82085       -1.27699
H         -0.75789        1.74523       -1.52420
