16
Coordinates from ORCA-job run	Energy:      59.7130293
C          0.92250       -0.06050       -0.03892
H          1.78767        1.88490        0.43497
F         -2.44662       -0.10973        0.26671
F          1.95261       -0.33105       -0.92646
C          0.79916        1.47660        0.12787
H         -0.01600       -0.47652       -0.46759
N          1.20642       -0.73900        1.22376
H          1.42521       -1.74009        1.01658
H          0.33295       -0.75924        1.79854
N         -0.17737        1.84557        1.15342
O         -1.13549        2.50198        0.88399
O          0.03760        1.58116        2.29866
C          0.43893        2.10058       -1.23571
H          1.20471        1.85238       -1.99981
H         -0.54629        1.72284       -1.58777
H          0.38537        3.20725       -1.15125
