13
Coordinates from ORCA-job run	Energy:      26.0740483
C          1.16314       -0.01826       -0.17414
H          0.99228        1.98296        0.63794
F         -2.35120       -0.05587        1.83896
F          2.46238        0.16257       -0.61773
C          0.45719        1.34049       -0.09699
H          0.62840       -0.68068       -0.89097
H         -0.58672        1.20369        0.25826
N          1.19098       -0.64926        1.14193
H          1.66824       -1.57586        1.05647
H          0.21136       -0.82780        1.46086
N          0.43232        1.98315       -1.39478
O          0.95610        3.04576       -1.54799
O         -0.13519        1.46735       -2.31043
