14
Coordinates from ORCA-job run	Energy:     155.1550199
C          1.10490        0.06698        0.01043
H          1.75769        2.11064        0.02076
F         -1.60643       -0.18517        0.25519
Cl         2.75121       -0.18574       -0.65650
C          0.78424        1.58829       -0.04463
H          0.45096       -0.54341       -0.65589
N          1.05967       -0.44585        1.38591
H          1.60188       -1.33013        1.42435
H          0.08728       -0.71206        1.67873
N          0.00091        2.12502        1.07203
H          0.50060        1.95283        1.97036
H         -0.94209        1.70208        1.15887
C          0.14770        1.93059       -1.32596
N         -0.32837        2.18051       -2.34685
