16
Coordinates from ORCA-job run	Energy:      40.0278047
C          0.28227       -0.06880        0.10959
H          1.72935        1.54112        0.33798
Br        -3.16627       -0.29671        0.14439
H          3.14259       -0.30730       -1.08527
C          0.63571        1.42667        0.16092
H          0.75459       -0.56942       -0.76488
N          0.68226       -0.75711        1.33285
H          1.72341       -0.85928        1.33594
H          0.26354       -1.71363        1.31503
N         -0.08953        2.08680        1.24241
O         -0.85034        2.98231        1.02074
O          0.10077        1.75601        2.37344
C          0.32598        2.06088       -1.20607
H          0.92195        1.56646       -2.00303
H         -0.75296        1.95798       -1.45077
H          0.59522        3.13854       -1.19648
