15
Coordinates from ORCA-job run	Energy:      88.5831074
C          1.28647        0.09129        0.22551
H          1.86471        2.06743       -0.49286
F         -1.53630       -1.06813       -1.44879
H          2.25759       -0.00085        0.74331
C          0.98082        1.60302       -0.00466
H          1.34636       -0.42378       -0.76034
N          0.26487       -0.51607        1.08586
H          0.59423       -1.43230        1.43844
H         -0.57255       -0.72861        0.52425
C          0.83438        2.26801        1.29432
N          0.68907        2.77505        2.33500
C         -0.21799        1.83120       -0.91888
H          0.10314        1.73684       -1.98663
H         -1.00645        1.08205       -0.75506
H         -0.68332        2.81859       -0.76499
