15
Coordinates from ORCA-job run	Energy:      50.3166287
C          0.41858       -0.04340        0.12656
H          1.77482        1.67680        0.28039
Br        -2.59360       -0.59761        0.32284
F          3.14475       -0.16800       -0.84750
C          0.69327        1.46498        0.12605
H          0.69318       -0.60198       -0.79667
N          0.91281       -0.70321        1.33436
H          1.94462       -0.87243        1.26958
H          0.43803       -1.63015        1.39527
C         -0.11957        2.12872        1.24300
H         -1.20812        2.05241        1.02901
H          0.07590        1.62779        2.21267
H          0.14782        3.20042        1.34713
C          0.30002        2.03026       -1.17630
N         -0.03846        2.46185       -2.19399
