14
Coordinates from ORCA-job run	Energy:      59.0260102
C          0.13673       -0.08949        0.10333
H          1.60651        1.50511        0.22883
Cl        -1.61730       -0.36320       -0.08829
F          3.09216       -0.21916       -0.52413
C          0.50980        1.41888        0.10727
H          0.62894       -0.57050       -0.77443
N          0.60192       -0.76157        1.32336
H          1.64749       -0.73678        1.36403
H          0.31991       -1.76963        1.29284
C         -0.06610        2.16156        1.24240
N         -0.49501        2.71094        2.16117
N          0.14774        2.04426       -1.16234
H          0.52318        3.01982       -1.17787
H         -0.89173        2.07390       -1.27022
