15
Coordinates from ORCA-job run	Energy:      58.3109746
C         -0.01540       -0.09140        0.11706
H          1.58513        1.35668        0.06654
F         -1.39605       -0.11094        0.21368
F          3.26217       -0.06414       -0.03693
C          0.49026        1.35067        0.05214
H          0.28870       -0.61912       -0.81908
N          0.55555       -0.76071        1.27870
H          1.58405       -0.68227        1.22331
H          0.38068       -1.78214        1.20582
C          0.01772        2.14131        1.19573
N         -0.33301        2.79957        2.08098
C          0.07032        2.01024       -1.25492
H          0.51474        1.46869       -2.11916
H         -1.03141        1.99790       -1.36245
H          0.42555        3.06137       -1.30010
