14
Coordinates from ORCA-job run	Energy:      97.2880891
C          0.54125       -0.04380       -0.21144
H          1.32525        1.76584       -1.08581
F         -0.17843       -0.60938       -1.25215
H          2.96454        0.15128        1.63395
C          0.54147        1.49500       -0.33941
H          1.58981       -0.40983       -0.28331
N         -0.01400       -0.47729        1.06414
H          0.73863       -0.35699        1.78558
H         -0.19164       -1.50129        1.01771
N          0.83982        2.16222        0.92541
H          1.71686        1.78607        1.32381
H          0.08359        1.96760        1.61722
C         -0.72976        2.00219       -0.87270
N         -1.72827        2.38154       -1.31566
