13
Coordinates from ORCA-job run	Energy:      63.8013813
C          0.14120       -0.09643       -0.06792
H          1.79653        1.28617       -0.42496
F         -1.22422       -0.07977       -0.29276
H          3.46955       -0.19311        0.54195
C          0.71035        1.33438       -0.17158
H          0.60900       -0.74646       -0.84412
H          0.61936        1.83071        0.81344
N          0.37427       -0.63616        1.26991
H          1.39388       -0.71330        1.47663
H         -0.06879       -1.58049        1.34456
N         -0.00394        2.12381       -1.15575
O         -0.57781        3.12328       -0.81720
O         -0.05318        1.78064       -2.29329
