17
Coordinates from ORCA-job run	Energy:      38.1919692
C          0.15834       -0.09766        0.11570
H          1.61420        1.50863        0.10027
Br        -1.76117       -0.43549        0.03338
H          3.28612       -0.64331       -0.64055
C          0.50589        1.41269        0.06606
H          0.61794       -0.59738       -0.76675
N          0.69378       -0.71086        1.32904
H          1.73322       -0.59714        1.34851
H          0.48991       -1.73588        1.30925
C         -0.06887        2.18225        1.26536
H         -1.17784        2.14111        1.27535
H          0.31393        1.76047        2.21877
H          0.24088        3.24806        1.21816
C          0.03537        2.05044       -1.24924
H          0.48709        1.52147       -2.11448
H         -1.07056        2.01301       -1.34334
H          0.35253        3.11449       -1.29260
