15
Coordinates from ORCA-job run	Energy:      62.2358190
C          0.14324       -0.06437       -0.19427
H          1.62593        1.51990       -0.29775
Cl        -1.61828       -0.28941        0.05331
H          2.98695       -0.15141        1.32246
C          0.52305        1.43768       -0.15216
H          0.66114       -0.57375        0.64821
N          0.54778       -0.72206       -1.42898
O          1.10077       -0.11946       -2.30086
O          0.36135       -1.89335       -1.55912
N          0.18056        2.01694        1.15005
H          0.48455        3.01743        1.17049
H          0.71489        1.51682        1.89863
N         -0.14640        2.18294       -1.22169
H          0.20793        3.16662       -1.23312
H         -1.17647        2.21467       -1.04987
