16
Coordinates from ORCA-job run	Energy:      50.2267129
C          0.09819       -0.06196       -0.21412
H          1.54916        1.54930       -0.30707
Br        -1.82012       -0.37597       -0.02663
Cl         3.50887       -0.41856        1.11775
C          0.44943        1.45193       -0.16700
H          0.59542       -0.55390        0.65002
N          0.57230       -0.71361       -1.42651
O          1.14685       -0.10223       -2.27791
O          0.42769       -1.89199       -1.55514
C          0.12040        2.07173        1.19911
H         -0.96616        2.01681        1.41692
H          0.67620        1.53951        2.00054
H          0.43013        3.13851        1.21517
N         -0.22312        2.18491       -1.24461
H          0.11995        3.17274       -1.26102
H         -1.25666        2.20594       -1.08543
