13
Coordinates from ORCA-job run	Energy:      27.5960206
C          0.32972       -0.02261       -0.12360
H          1.82482        1.53812       -0.40229
Cl        -3.08165       -0.22748       -0.18186
Cl         3.79390       -0.65378        0.90723
C          0.73727        1.45549       -0.18430
H          0.84751       -0.51350        0.72748
H          0.54289        1.92254        0.80566
N          0.61205       -0.75918       -1.34146
O          1.16875       -0.24664       -2.26582
O          0.29569       -1.90795       -1.41358
N         -0.02924        2.15795       -1.20771
H          0.27675        3.15792       -1.22336
H         -1.04231        2.13871       -0.94649
