13
Coordinates from ORCA-job run	Energy:      30.1780009
C          0.00962       -0.01739       -0.16177
H          1.68903        1.38116       -0.12881
F         -1.37163        0.04169       -0.22703
H          2.84408       -0.35125        1.04561
C          0.57837        1.40041       -0.05503
H          0.29376       -0.59328        0.74711
H          0.18813        2.02089       -0.89372
N          0.52536       -0.68872       -1.33778
O          0.34137       -0.23822       -2.42459
O          1.13713       -1.71218       -1.21957
N          0.19743        2.00812        1.21733
H          0.55256        2.99125        1.23858
H          0.67932        1.48863        1.98835
