11
Coordinates from ORCA-job run	Energy:      14.7722682
C          1.04200       -0.08340        0.01885
H          1.75419        1.85686       -0.69291
Cl        -2.62978        0.01470       -0.24678
Cl         2.62313       -0.54942        0.70774
C          0.95352        1.44603       -0.04137
H          0.24301       -0.45035        0.69893
H          1.06823        1.87186        0.97806
H         -0.03475        1.75809       -0.44052
N          0.87427       -0.70740       -1.28445
O          0.70345       -0.05230       -2.26838
O          0.88802       -1.89869       -1.37160
