13
Coordinates from ORCA-job run	Energy:      38.8609048
C          0.12217       -0.02271       -0.16717
H          1.67987        1.48800       -0.28897
Br        -1.79699       -0.16000        0.13756
Cl         3.61223       -0.60058        0.91872
C          0.57645        1.45268       -0.15806
H          0.62220       -0.52990        0.68636
H          0.33637        1.91137        0.82709
N          0.48035       -0.72759       -1.38864
O          1.05342       -0.17411       -2.28030
O          0.23391       -1.89063       -1.48983
N         -0.05614        2.22690       -1.22464
H          0.35638        3.18788       -1.22289
H         -1.07578        2.32953       -1.02350
