14
Coordinates from ORCA-job run	Energy:      23.2188034
C          0.35535       -0.13788       -0.26867
H          1.79294        1.44492       -0.67655
Cl        -1.27612       -0.33416        0.45789
Cl         3.19610       -0.11487        2.35267
C          0.74454        1.35226       -0.31863
H          1.06503       -0.66188        0.40603
H          0.69802        1.77368        0.70908
N          0.44224       -0.74648       -1.58647
O          1.48622       -0.76177       -2.16570
O         -0.51349       -1.25489       -2.09090
C         -0.15732        2.17954       -1.23750
H         -0.10070        1.80391       -2.28096
H         -1.21221        2.14352       -0.89468
H          0.17685        3.23828       -1.22803
