17
Coordinates from ORCA-job run	Energy:      52.1956432
C          0.14635       -0.06141       -0.06068
H          1.62560        1.54891       -0.19219
Cl        -3.10805       -0.55544       -0.68728
Cl         3.89053       -0.25003        0.71211
C          0.52469        1.44848       -0.06027
N          0.66612       -0.77808       -1.22022
O          1.38715       -0.24396       -2.00700
O          0.36924       -1.92174       -1.38625
C          0.53352       -0.76151        1.17703
N          0.81790       -1.31335        2.15427
C          0.16511        2.15098        1.26018
H         -0.91791        2.06125        1.47515
H          0.74421        1.71612        2.10205
H          0.43715        3.22805        1.19929
N         -0.15317        2.10281       -1.17680
H          0.12489        3.11054       -1.22311
H         -1.19223        2.05415       -1.04254
