15
Coordinates from ORCA-job run	Energy:      36.6063157
C          0.03807       -0.06887       -0.07938
H          1.56221        1.51071       -0.08273
Cl        -1.74919       -0.19045       -0.08945
F          3.52112       -0.31468        0.40081
C          0.45482        1.42819       -0.02332
H          0.02357        1.95293       -0.90443
N          0.55203       -0.72528       -1.27833
O          1.21689       -0.12772       -2.07490
O          0.31124       -1.87864       -1.47539
C          0.54194       -0.78167        1.10927
N          0.93195       -1.34149        2.04389
C          0.00510        2.16289        1.24510
H         -1.09827        2.13331        1.35542
H          0.47473        1.71217        2.14483
H          0.32367        3.22476        1.18698
