15
Coordinates from ORCA-job run	Energy:     188.5289938
C          0.23635       -0.11901       -0.18775
H          1.65540        1.49151       -0.68913
F         -1.07731       -0.23616       -0.56881
Cl         3.34216       -0.01963        0.52342
C          0.65987        1.37514       -0.21739
H          0.77607        1.79811        0.80658
N          1.04252       -0.90111       -1.12522
O          1.29720       -0.42322       -2.19000
O          1.04915       -2.09335       -1.03645
C          0.28599       -0.68904        1.24568
H          0.21370       -1.79211        1.21319
H          1.19025       -0.41749        1.81928
H         -0.59858       -0.30332        1.79682
C         -0.29363        2.23180       -0.93441
N         -1.08594        2.84181       -1.51271
