18
Coordinates from ORCA-job run	Energy:     172.5109593
C          0.55062       -0.05899       -0.02180
H          1.69997        1.74942       -0.35581
Cl        -2.20100       -0.26409       -0.39271
F          3.22719       -0.15361        0.29697
C          0.65643        1.49454       -0.06656
N          0.86115       -0.82650       -1.23457
O          0.98553       -0.27370       -2.28535
O          0.80939       -2.01936       -1.22109
C          0.45526       -0.83674        1.31744
H          1.38327       -0.82119        1.92963
H         -0.37734       -0.42139        1.93066
H          0.18317       -1.88672        1.10279
C          0.30992        2.14469        1.25333
H         -0.72741        1.87453        1.54550
H          1.02279        1.80208        2.02926
H          0.38769        3.24588        1.15229
C         -0.17539        2.09569       -1.12074
N         -0.81047        2.61263       -1.93869
