14
Coordinates from ORCA-job run	Energy:      45.1227495
C          0.11741        0.01512       -0.00030
H          1.81815        1.39242        0.12988
Br        -1.82035        0.15322       -0.13240
F          3.63888       -0.62716       -0.41602
C          0.71033        1.43523        0.05603
H          0.31839        1.98569        0.93796
H          0.43944        2.01237       -0.85354
N          0.62510       -0.71360       -1.16015
O          0.72579       -0.13363       -2.19955
O          0.46637       -1.89706       -1.20150
C          0.47214       -0.72493        1.30211
H          1.57379       -0.82278        1.40695
H          0.08034       -0.17199        2.18260
H          0.02529       -1.74176        1.31169
