19
Coordinates from ORCA-job run	Energy:      83.9632699
C         -0.02803        0.00028       -0.03830
H          1.59625        1.48975       -0.16206
F         -1.41180        0.01848       -0.10576
F          3.62821       -0.29437        0.20341
C          0.49505        1.48300       -0.00775
N          0.48689       -0.72506       -1.20214
O          1.28673       -0.23525       -1.94391
O          0.13487       -1.85099       -1.40145
C          0.35311       -0.77676        1.23527
H          1.45060       -0.79272        1.38792
H         -0.13378       -0.33008        2.12696
H         -0.01518       -1.82329        1.17441
C          0.27263        2.20417        1.33154
H         -0.80270        2.22132        1.60523
H          0.85543        1.71606        2.14091
H          0.64529        3.24924        1.25921
N         -0.13612        2.28334       -1.06663
H         -1.16603        2.36364       -0.89626
H          0.00782        1.85563       -2.00728
