15
Coordinates from ORCA-job run	Energy:      32.6073625
C          0.70160       -0.10284        0.00976
H          2.04082        1.43788        0.72477
Br        -2.90587       -0.00884        0.07677
F          3.72664       -0.46961       -0.45853
C          1.04839        1.36169        0.23043
H          1.13062        1.88664       -0.74461
N          0.40962       -0.58848       -1.30781
O          0.40613        0.15585       -2.24106
O          0.14448       -1.73971       -1.48516
N          0.68899       -0.91157        1.01873
H          0.91281       -0.58278        1.96943
H          0.46381       -1.91109        0.90616
N          0.04302        2.02541        1.03787
O         -0.56063        2.95478        0.59383
O         -0.16217        1.67626        2.16127
