13
Coordinates from ORCA-job run	Energy:      37.9466382
C          0.05166        0.03689       -0.00863
H          1.71768        1.45637        0.09088
F         -1.33035        0.11606       -0.06803
F          3.63830       -0.59376       -0.28925
C          0.60880        1.46898        0.02074
H          0.20623        2.01488        0.90050
H          0.31216        2.01776       -0.89840
N          0.52851       -0.71888       -1.16241
O          1.25557       -0.22071       -1.96968
O          0.16611       -1.84525       -1.32319
N          0.42994       -0.64604        1.23181
H          1.46848       -0.76398        1.27342
H         -0.01242       -1.59324        1.26440
