14
Coordinates from ORCA-job run	Energy:     205.7919022
C          1.16499       -0.08407        0.03304
H          1.77938        1.98035       -0.04844
Br        -2.17424       -0.00665       -0.26330
F          2.54664       -0.16135        0.01536
C          0.81263        1.44710        0.04421
H          0.22683        1.76744       -0.84227
N          0.69405       -0.73340       -1.19382
O          0.84709       -0.15664       -2.23030
O          0.66494       -1.92692       -1.23053
N          0.71907       -0.79500        1.25084
H          1.39067       -1.57408        1.43264
H         -0.22708       -1.24048        1.20143
C          0.18154        2.02364        1.24684
N         -0.31322        2.54589        2.15500
