14
Coordinates from ORCA-job run	Energy:     582.8404458
C          0.65277       -0.04918        0.04523
H          1.79540        1.82099        0.23630
Br        -2.47874       -0.06682       -0.12307
F          3.37217       -0.24443       -0.18699
C          0.77038        1.46309        0.01791
H          0.16159        1.85853        0.85885
N          0.64206       -0.84215       -1.15503
O          0.73447       -0.32664       -2.22713
O          0.61777       -2.03451       -1.08862
N          0.65616       -0.61814        1.20632
H          1.48518       -1.22385        1.30671
H          0.04390       -1.44472        1.24304
C          0.22692        2.14272       -1.16491
N         -0.18599        2.70459       -2.08917
