14
Coordinates from ORCA-job run	Energy:      93.6834149
C          0.93984        0.01069        0.02613
H          1.76213        1.93183       -0.43463
Br        -2.30485       -0.58309       -0.30162
Cl         2.50577       -0.35494        0.79887
C          0.78041        1.54739       -0.10121
H          0.17408       -0.42585        0.69474
C          0.91976       -0.64729       -1.28662
N          0.88656       -1.16410       -2.32125
N          0.41976        2.09596        1.20817
H          0.45353        3.13783        1.18360
H          1.11168        1.77024        1.91921
N         -0.19406        1.97119       -1.11964
H         -0.13190        3.01010       -1.23766
H         -1.17644        1.76427       -0.85163
