16
Coordinates from ORCA-job run	Energy:      28.0703523
C          0.25895       -0.08413       -0.22979
H          1.64612        1.59217       -0.43088
F         -1.08367       -0.31199        0.01148
F          2.42716       -0.22615        2.19674
C          0.55840        1.42931       -0.24031
H          0.83749       -0.58374        0.56105
C          0.64764       -0.73029       -1.49148
N          0.94890       -1.24743       -2.47848
C          0.23891        2.03462        1.13641
H         -0.84215        1.93033        1.37929
H          0.81414        1.52218        1.93619
H          0.51773        3.11309        1.17340
C         -0.25038        2.14368       -1.33345
H          0.02991        1.75569       -2.33232
H         -1.33503        1.97198       -1.18022
H         -0.05501        3.23606       -1.32184
