15
Coordinates from ORCA-job run	Energy:     194.1022897
C          0.98687       -0.04242       -0.03667
H          1.76362        1.95948        0.14441
F         -1.62471        0.15044        0.15747
Cl         2.72866       -0.42414       -0.04807
C          0.77005        1.50633       -0.00093
H          0.57838       -0.49507        0.89422
C          0.46313       -0.78694       -1.20395
N          0.02888       -1.30998       -2.14062
N         -0.01637        1.90970        1.16699
O         -0.76329        2.84135        1.10773
O          0.23030        1.44018        2.23709
C          0.17034        2.06157       -1.30274
H          0.77769        1.75118       -2.17525
H         -0.86050        1.67134       -1.42865
H          0.12705        3.16685       -1.26857
