15
Coordinates from ORCA-job run	Energy:      78.2305082
C          0.34256        0.00864       -0.13368
H          1.72095        1.67596       -0.52415
Br        -2.61975       -0.65715       -0.60759
Br         3.28589       -0.47349        1.27509
C          0.67177        1.51565       -0.18483
H          0.36148       -0.50612        0.85052
C          0.84894       -0.76256       -1.26669
N          1.24717       -1.40514       -2.17118
N          0.49899        2.09646        1.14624
H          0.62458        3.13507        1.10279
H          1.24036        1.72025        1.78228
C         -0.29307        2.18739       -1.16384
H         -0.26101        1.69519       -2.15824
H         -1.33358        2.13614       -0.77243
H         -0.01939        3.25563       -1.28869
