12
Coordinates from ORCA-job run	Energy:      30.3042158
C          0.24398       -0.08820       -0.20281
H          1.78998        1.37507       -0.68176
Cl        -1.43734       -0.17058        0.36353
Cl         3.17273       -0.11208        1.57117
C          0.74302        1.36882       -0.30586
H          0.85517       -0.62583        0.53823
H          0.75225        1.81238        0.71723
C          0.38687       -0.84736       -1.44964
N          0.50765       -1.44698       -2.43676
N         -0.08446        2.18994       -1.16960
O         -0.48364        3.24578       -0.78019
O         -0.29524        1.86192       -2.29701
