13
Coordinates from ORCA-job run	Energy:      32.1752406
C          1.02151       -0.01100       -0.17523
H          1.22761        1.98881        0.60243
Cl        -1.73880       -0.63277        1.35244
Cl         2.72643       -0.08303       -0.65673
C          0.53920        1.44395       -0.07100
H          0.93412       -0.46552        0.83616
H         -0.45576        1.44381        0.40858
C          0.26502       -0.78182       -1.15919
N         -0.31515       -1.35541       -1.97972
C          0.46474        2.16279       -1.42344
H          1.44639        2.15412       -1.93476
H         -0.28024        1.67750       -2.08555
H          0.15665        3.21597       -1.27964
