14
Coordinates from ORCA-job run	Energy:      74.8374753
C          0.86620        0.00306       -0.03103
H          1.81253        1.90590       -0.48806
F         -2.26004       -0.36673       -0.34350
Cl         2.16172       -0.55994        1.03731
C          0.82389        1.52398       -0.11633
H         -0.10353       -0.35133        0.41424
C          1.04914       -0.59300       -1.35998
N          1.19352       -1.09440       -2.39488
N          0.58109        2.08126        1.22805
H          0.29137        3.08133        1.18700
H          1.47661        2.05067        1.76936
N         -0.20587        1.98579       -1.05074
H         -0.42470        3.00043       -0.91932
H         -1.09540        1.48050       -0.89031
