15
Coordinates from ORCA-job run	Energy:      82.2292668
C          0.10754       -0.08742       -0.16598
H          1.50552        1.57288       -0.42107
Cl        -1.63461       -0.44737       -0.26397
F          2.71763       -0.02387        0.75713
C          0.43095        1.43260       -0.18697
H          0.45770       -0.51141        0.79495
C          0.82139       -0.77526       -1.24575
N          1.43268       -1.31056       -2.08611
C          0.24357        2.04413        1.21139
H         -0.78850        1.91857        1.59547
H          0.94414        1.52673        1.90611
H          0.51952        3.11907        1.22113
N         -0.33665        2.12998       -1.22067
H         -0.04313        3.13213       -1.25261
H         -1.35537        2.10866       -0.99334
