13
Coordinates from ORCA-job run	Energy:      91.5668250
C          0.16730       -0.06881       -0.02334
H          1.67069        1.57917        0.08264
F         -1.20162       -0.14095        0.09683
F          2.76738       -0.30522       -0.06096
C          0.57574        1.43239        0.02294
H          0.62646       -0.59411        0.85246
C          0.50619       -0.77767       -1.27393
N          0.73107       -1.28687       -2.28820
N          0.01982        2.03885        1.21168
O         -0.59833        3.05628        1.15286
O          0.20903        1.53529        2.27845
C          0.14581        2.11718       -1.21112
N         -0.15992        2.60803       -2.20383
