14
Coordinates from ORCA-job run	Energy:      85.9606908
C          0.93655        0.00753        0.03184
H          1.76862        1.94048       -0.42446
Cl        -2.25508       -0.56576       -0.33270
Cl         2.49226       -0.37430        0.80472
C          0.78524        1.54421       -0.09666
H          0.14948       -0.42115        0.68940
C          0.90940       -0.65458       -1.28678
N          0.86345       -1.16026       -2.31832
N          0.41461        2.09792        1.20793
H          0.44237        3.14094        1.17706
H          1.09196        1.77436        1.93313
N         -0.19026        1.96642       -1.11700
H         -0.14266        3.00775       -1.22418
H         -1.17069        1.74290       -0.85348
