16
Coordinates from ORCA-job run	Energy:     146.7839672
C          0.99742       -0.01013        0.01981
H          1.79247        1.98070       -0.20963
F         -1.62450       -0.15119       -0.00103
H          2.03556       -0.20746        0.27635
C          0.79496        1.52971       -0.07765
H          0.46152       -0.45262        0.88833
C          0.75785       -0.75687       -1.22063
N          0.59405       -1.32731       -2.21425
C          0.18652        2.04984        1.22702
H         -0.84570        1.65905        1.30944
H          0.76320        1.69612        2.10150
H          0.15880        3.15871        1.25328
C         -0.06803        1.99401       -1.25811
H          0.40225        1.72734       -2.22322
H         -1.05043        1.52123       -1.22188
H         -0.21412        3.09112       -1.23543
