15
Coordinates from ORCA-job run	Energy:     191.7269025
C          1.01700       -0.06520       -0.01978
H          1.77873        1.90411        0.05154
Cl        -2.03951       -0.12635        0.23358
Cl         2.77117       -0.40031        0.10104
C          0.76328        1.49167       -0.02147
H          0.53430       -0.51099        0.88160
C          0.54576       -0.73295       -1.23757
N          0.22138       -1.26973       -2.22465
N          0.03405        1.93957        1.16345
O         -0.69605        2.88827        1.11547
O          0.29024        1.47077        2.23153
C          0.15199        2.09101       -1.30411
H          0.72462        1.77378       -2.19506
H         -0.90817        1.78061       -1.41809
H          0.18844        3.19971       -1.24184
