12
Coordinates from ORCA-job run	Energy:      33.4877678
C          0.23243       -0.03502       -0.23929
H          1.51534        1.68992       -0.54432
Br        -1.58713       -0.50587        0.23811
F          2.50689       -0.10402        2.09678
C          0.47012        1.48177       -0.22000
H          0.89279       -0.52813        0.48765
H         -0.22616        1.98791       -0.92538
C          0.58623       -0.60530       -1.53928
N          0.89392       -1.04330       -2.56438
N          0.27133        2.02520        1.12254
H          0.58144        3.02361        1.12864
H          0.89317        1.53001        1.79616
