12
Coordinates from ORCA-job run	Energy:      62.9283036
C          1.04003       -0.05106        0.03179
H          1.62101        2.02211       -0.38164
Br        -2.31105       -0.10095       -0.28367
Cl         2.69368       -0.32373        0.63494
C          0.72701        1.46221       -0.02964
H          0.32468       -0.56687        0.70643
H         -0.08228        1.65946       -0.76900
C          0.88162       -0.68962       -1.28739
N          0.72410       -1.21772       -2.30422
N          0.29604        2.00220        1.24977
O         -0.18784        3.09331        1.29246
O          0.38064        1.36244        2.25596
