14
Coordinates from ORCA-job run	Energy:      86.7107988
C          0.90398        0.04265        0.02816
H          1.79035        1.96341       -0.46301
Cl        -2.24856       -0.65420       -0.47465
Br         2.54404       -0.50879        0.88995
C          0.81629        1.57626       -0.09724
H          0.05866       -0.29445        0.66589
C          0.87961       -0.60357       -1.29252
N          0.88599       -1.09644       -2.33968
N          0.48838        2.13707        1.21701
H          0.49924        3.18013        1.18559
H          1.20551        1.83246        1.91108
N         -0.20354        1.96119       -1.07949
H         -0.38704        2.98870       -1.09375
H         -1.09786        1.51383       -0.83282
