13
Coordinates from ORCA-job run	Energy:      76.9288846
C          0.46258       -0.00330       -0.11076
H          1.54478        1.84733       -0.43413
Br        -2.47021       -0.46683       -0.66273
F          3.01037       -0.05645        0.93626
C          0.53048        1.51755       -0.11854
H          0.33519       -0.55976        0.84422
H         -0.22450        1.91581       -0.83594
C          0.96335       -0.71459       -1.29542
N          1.33218       -1.30821       -2.21727
C          0.24108        2.05952        1.27958
H         -0.78336        1.78085        1.60704
H          0.97123        1.64280        2.00737
H          0.32261        3.16499        1.28914
