15
Coordinates from ORCA-job run	Energy:      76.9882116
C          0.78353       -0.09286       -0.09460
H          1.70270        1.84979       -0.54642
F         -2.19658        0.43566        0.58185
H          1.38451       -0.40463        0.78356
C          0.71968        1.45331       -0.20742
H         -0.22275       -0.51098        0.07135
C          1.35586       -0.73551       -1.27349
N          1.80703       -1.28145       -2.19855
C          0.45035        2.02558        1.19531
H         -0.51420        1.66007        1.57960
H          1.24011        1.71594        1.91216
H          0.41450        3.13508        1.17508
N         -0.33795        1.88422       -1.12419
O         -0.71808        3.01607       -1.08757
O         -0.60261        1.22629       -2.08426
