13
Coordinates from ORCA-job run	Energy:     124.6639700
C          0.18130       -0.10044        0.02246
H          1.46182        1.79509        0.34638
Cl        -1.57870       -0.30595        0.05859
Cl         3.28582       -0.01418       -0.11275
C          0.45448        1.44082        0.02156
H         -0.24795        1.84085        0.77851
C          0.56508       -0.82321       -1.22954
N          0.78286       -1.40076       -2.21359
N          0.75464       -0.73240        1.22113
O          0.77993       -0.11961        2.24716
O          0.85539       -1.92222        1.27432
C          0.17032        2.05233       -1.28146
N         -0.09721        2.56405       -2.28550
