14
Coordinates from ORCA-job run	Energy:     191.6336368
C          1.18910       -0.01035        0.02072
H          1.69488        2.10902        0.10590
F         -1.60645       -0.21291       -0.01689
F          2.56105       -0.06888        0.13614
C          0.76777        1.50710        0.00035
H          0.13169        1.77439        0.87498
C          0.85974       -0.72821       -1.23773
N          0.62033       -1.27016       -2.23364
N          0.61147       -0.70738        1.18106
O          0.54833       -0.14049        2.22912
O          0.60376       -1.90422        1.19391
N          0.09305        1.95092       -1.22480
H         -0.14799        2.96531       -1.12343
H         -0.82454        1.47142       -1.32893
