13
Coordinates from ORCA-job run	Energy:     207.9719336
C          1.08679       -0.02712       -0.02621
H          0.71857        1.40389        1.64904
F         -1.21336       -0.31624        1.24889
F          2.30342        0.03832       -0.67002
C          0.80648        1.42631        0.54394
H          1.66899        2.05747        0.28872
C          0.18033       -0.48592       -1.08294
N         -0.61090       -0.76901       -1.89664
N          1.23486       -1.00073        1.06929
O          1.67110       -0.66550        2.13716
O          1.22533       -2.15933        0.80306
C         -0.39660        2.12051        0.05620
N         -1.32749        2.71972       -0.29738
