14
Coordinates from ORCA-job run	Energy:      50.6086697
C          1.03614       -0.05296       -0.09180
H          1.33496        1.96279        0.61236
Cl        -2.24545       -0.28954        0.61609
Br         2.88880       -0.12081       -0.60797
C          0.57528        1.41920        0.01281
H         -0.38324        1.52172        0.55761
C          0.33618       -0.82123       -1.13987
N         -0.18704       -1.37267       -2.01390
C          0.97335       -0.70424        1.22915
N          0.94964       -1.18860        2.28135
C          0.39444        2.09287       -1.35141
H          1.29691        1.96894       -1.98223
H         -0.47747        1.64381       -1.87677
H          0.19117        3.17450       -1.21965
