15
Coordinates from ORCA-job run	Energy:     166.3765651
C          0.11866       -0.08769       -0.20993
H          1.46847        1.63222       -0.65003
F         -1.17748       -0.27314       -0.67158
F          2.77303       -0.00917        0.77164
C          0.46612        1.44490       -0.19113
C          0.98725       -0.82871       -1.14506
N          1.65803       -1.38867       -1.91322
C          0.12225       -0.73365        1.11950
N          0.07625       -1.22927        2.16436
N          0.49690        1.99946        1.17046
H          0.76303        3.00977        1.13384
H          1.27214        1.54617        1.70340
N         -0.52287        2.17146       -0.98995
H         -0.27511        3.18482       -1.02840
H         -1.45047        2.09139       -0.50980
