14
Coordinates from ORCA-job run	Energy:      92.7553825
C          0.64109       -0.04319       -0.01292
H          1.38820        1.91351       -0.49104
F         -2.09412       -0.28477       -0.40845
Cl         3.58363       -0.06864        0.55547
C          0.45480        1.47552       -0.06882
H         -0.38424        1.74187       -0.74056
C          0.79135       -0.77205       -1.27728
N          0.92394       -1.33019       -2.28259
C          0.32563       -0.82044        1.19277
N          0.11602       -1.42386        2.16757
C          0.20495        2.08820        1.31151
H         -0.74787        1.69276        1.72431
H          1.03616        1.83758        2.00508
H          0.12483        3.19152        1.23020
