13
Coordinates from ORCA-job run	Energy:     172.9966480
C          0.06265       -0.13540        0.12526
H          0.85114        1.83265        0.81938
F         -1.24253       -0.38272        0.52310
Cl         3.09257        0.22654       -0.75668
C          0.19123        1.42409        0.01723
H         -0.81687        1.84030        0.23022
C          0.18845       -0.92003       -1.12540
N          0.27928       -1.56759       -2.07994
C          0.85809       -0.69733        1.23046
N          1.43465       -1.12924        2.13234
N          0.60274        1.97797       -1.26781
O          1.22196        3.00119       -1.27404
O          0.02442        1.65824       -2.26079
