13
Coordinates from ORCA-job run	Energy:      70.6918732
C          0.13696       -0.08607       -0.00435
H          1.63307        1.53545        0.02954
Cl        -1.61818       -0.25661        0.04647
F          2.90156       -0.31613       -0.07346
C          0.53407        1.40306       -0.00746
H          0.12441        1.87454        0.91609
C          0.57071       -0.76911       -1.24311
N          0.89499       -1.29081       -2.23357
C          0.64799       -0.70634        1.24252
N          1.01279       -1.14468        2.25568
N          0.04779        2.07738       -1.20841
H          0.50453        3.01256       -1.29629
H         -0.98085        2.22816       -1.12443
