15
Coordinates from ORCA-job run	Energy:     116.9517299
C          0.20706       -0.04464        0.07263
H          1.84253        1.53084        0.42056
Br        -1.72903        0.02070        0.03111
F          2.90067       -0.27238       -0.27010
C          0.76388        1.42366        0.16360
H          0.61777        1.89072       -0.83138
C          0.51081       -0.67002       -1.23520
N          0.65460       -1.16612       -2.27437
C          0.62392       -0.94063        1.26170
H          1.70824       -0.97157        1.55160
H          0.06456       -0.59724        2.15926
H          0.31458       -1.98527        1.05472
N          0.04899        2.20342        1.14296
O         -0.54353        3.17823        0.80070
O          0.06032        1.89277        2.29244
