13
Coordinates from ORCA-job run	Energy:     112.6794952
C          1.19539       -0.06220       -0.05643
H          1.35921        1.89305        0.85523
Cl        -2.25910       -0.08241        0.21787
Cl         2.94512       -0.14790       -0.35448
C          0.83165        1.42320       -0.00486
H         -0.24981        1.57813        0.13327
H          1.14675        1.92918       -0.94080
C          0.58411       -0.74495       -1.20957
N          0.12096       -1.31125       -2.10694
C          0.82541       -0.76123        1.27179
H          1.73241       -1.17518        1.75803
H          0.34974       -0.05632        1.98867
H          0.08994       -1.58307        1.12668
