14
Coordinates from ORCA-job run	Energy:      36.8447591
C          1.09054       -0.11521       -0.19767
H          1.18326        1.87146        0.71692
F         -2.04728        0.39382        1.32357
F          2.42445       -0.14328       -0.55143
C          0.61543        1.34230       -0.08016
H         -0.43075        1.37394        0.20575
C          0.32800       -0.85330       -1.22256
N         -0.25825       -1.44973       -2.02218
C          0.94009       -0.80795        1.15716
H          1.59280       -0.31613        1.90784
H         -0.09526       -0.74470        1.52462
H          1.20809       -1.88084        1.08682
C          0.68210        2.08367       -1.33848
N          0.72260        2.69738       -2.31777
