16
Coordinates from ORCA-job run	Energy:      89.3702246
C          0.00230       -0.12170       -0.04452
H          1.35324        1.62957       -0.44735
Cl        -1.73925       -0.35902       -0.24238
Cl         3.51502        0.06692        0.12019
C          0.32404        1.41114       -0.05158
H         -0.36609        1.93103       -0.76015
C          0.65148       -0.71562       -1.21304
N          1.15679       -1.23160       -2.13951
C          0.41649       -0.83641        1.26710
H          1.43568       -0.59280        1.64619
H         -0.28858       -0.53164        2.06851
H          0.34080       -1.92871        1.14985
C          0.27480        2.10988        1.31758
H         -0.72135        1.99113        1.78323
H          1.05257        1.68705        1.99211
H          0.51155        3.19117        1.20558
