16
Coordinates from ORCA-job run	Energy:      56.0553182
C          1.22885       -0.00456        0.13224
H          1.05842        1.96392       -0.77734
F         -2.36795       -0.05314        0.03013
Br         3.06830        0.30454        0.66047
C          0.48246        1.34329       -0.05657
H         -0.50867        1.18731       -0.52312
C          1.28452       -0.69867       -1.16819
N          1.29520       -1.24307       -2.18827
C          0.53954       -0.89296        1.18509
H          0.98157       -1.91294        1.19534
H          0.63972       -0.43438        2.19596
H         -0.53327       -1.00336        0.97055
C          0.24623        2.11356        1.25054
H         -0.62120        1.67086        1.78913
H          1.13510        2.08847        1.91697
H         -0.00093        3.17014        1.01951
