16
Coordinates from ORCA-job run	Energy:     195.2313715
C          0.17886       -0.04468        0.01233
H          1.61530        1.73019        0.14440
F         -1.19161       -0.09037       -0.05455
Cl         3.34925       -0.15196       -0.00224
C          0.54015        1.46878        0.03189
C          0.53202       -0.75884       -1.23347
N          0.79390       -1.33973       -2.19597
C          0.61000       -0.79449        1.29012
H          1.16746       -1.73409        1.09372
H          1.24539       -0.19124        1.98459
H         -0.33305       -1.03566        1.81919
C         -0.16325        2.07151        1.19439
N         -0.67370        2.49894        2.13404
N          0.07960        2.04153       -1.22264
H          0.20498        3.06997       -1.24293
H         -0.93058        1.80633       -1.37006
