18
Coordinates from ORCA-job run	Energy:      98.7810425
C          0.40227       -0.08642       -0.45338
H          0.91952        1.71785       -1.52136
F         -0.44602       -0.48533       -1.47054
F          2.62842       -0.59465        2.03570
C          0.52923        1.47229       -0.50797
C          1.69709       -0.72492       -0.75387
N          2.71408       -1.20897       -1.02426
C         -0.20672       -0.61718        0.86174
H          0.30846       -0.25513        1.77097
H         -1.26508       -0.29421        0.94287
H         -0.20411       -1.72947        0.86751
N          1.43441        2.05551        0.49464
H          2.20820        2.58109        0.02715
H          1.86073        1.35744        1.13031
C         -0.82698        2.16013       -0.36484
H         -1.54149        1.77104       -1.11891
H         -1.24220        2.00382        0.65364
H         -0.70081        3.25127       -0.52140
