17
Coordinates from ORCA-job run	Energy:      56.0755598
C          0.14974       -0.01149       -0.00446
H          1.68602        1.53402       -0.22352
Br        -3.18420       -0.81424       -0.58107
Cl         4.20464       -0.12081        0.32902
C          0.58916        1.47204       -0.03130
C          0.67153       -0.71212       -1.19279
N          1.08040       -1.27032       -2.11981
C          0.51746       -0.77998        1.26632
H          1.61068       -0.77199        1.44483
H         -0.00196       -0.33353        2.13928
H          0.16580       -1.83124        1.18738
N          0.30335        2.14648        1.23860
H          0.55134        3.15817        1.14780
H          0.94659        1.76930        1.97238
N         -0.12468        2.14758       -1.11778
H          0.18085        3.14523       -1.17599
H         -1.15270        2.13412       -0.91385
