15
Coordinates from ORCA-job run	Energy:     124.9872581
C          0.26388       -0.01805        0.10065
H          1.71518        1.56883        0.31116
F         -1.11137       -0.17528       -0.00518
H          1.82704       -1.34435       -0.82866
C          0.62149        1.49434        0.15116
C          0.96671       -0.72815       -1.04756
N          0.61918       -0.58751       -2.27447
N          0.70230       -0.63588        1.35614
H          1.74572       -0.57909        1.43277
H          0.43517       -1.64759        1.34820
C         -0.06336        2.14197        1.29485
N         -0.62804        2.64254        2.16659
N          0.28693        2.22214       -1.08685
H         -0.54422        2.84008       -0.96885
H          0.00753        1.58752       -1.85474
