15
Coordinates from ORCA-job run	Energy:      46.3149200
C          0.01008       -0.10233        0.01030
H          1.55590        1.43962       -0.03568
F         -1.36556       -0.18803        0.11858
Cl         3.96838       -0.39904        0.46209
C          0.44222        1.37635        0.00559
H          0.03657        1.86708       -0.90258
C          0.38293       -0.73027       -1.27225
N          0.65087       -1.19195       -2.30345
N          0.59586       -0.79581        1.14817
H          1.61811       -0.64354        1.17291
H          0.43665       -1.82732        1.07426
C         -0.05652        2.12452        1.24373
H         -1.16502        2.08537        1.29844
H          0.36286        1.68026        2.17086
H          0.25229        3.19017        1.19476
