16
Coordinates from ORCA-job run	Energy:     203.3409015
C          0.16243       -0.09494        0.16953
H          1.57777        1.58612        0.38359
F         -1.16398       -0.21299        0.46219
F          2.55209       -0.01742       -0.76967
C          0.51400        1.41723        0.13119
C          0.18065       -0.79517       -1.16234
N          0.15181       -1.41176       -2.13214
N          0.89556       -0.73508        1.25878
H          1.87337       -0.97937        1.00547
H          0.41111       -1.62285        1.46255
C         -0.28261        2.10337        1.16168
N         -0.88529        2.67062        1.95852
C          0.28664        2.04140       -1.25113
H          1.00876        1.57108       -1.95420
H         -0.73837        1.85345       -1.61129
H          0.47684        3.12775       -1.24340
