14
Coordinates from ORCA-job run	Energy:     100.5226718
C          0.10782       -0.08130        0.00483
H          1.68262        1.46605       -0.04401
Cl        -1.66618       -0.12925        0.03407
F          2.99843       -0.24828       -0.46335
C          0.58430        1.38984       -0.04723
H          0.24183        1.88596        0.89218
C          0.52821       -0.93069       -1.13903
N          0.83306       -1.63100       -2.01746
N          0.60760       -0.65327        1.26042
H          1.63583       -0.82924        1.22797
H          0.16332       -1.57233        1.43900
N          0.07098        2.13789       -1.17205
O         -0.18648        3.29567       -1.03418
O          0.08788        1.66914       -2.26900
