17
Coordinates from ORCA-job run	Energy:      71.4020644
C          0.33016       -0.10666        0.06156
H          1.67838        1.59245        0.23877
Cl        -1.42762       -0.44924       -0.15090
H          2.22135       -0.60692       -1.06338
C          0.58509        1.42980        0.10133
C          1.14048       -0.71414       -1.06967
N          0.58687       -1.35179       -2.03539
N          0.75463       -0.71389        1.32551
H          1.77962       -0.56972        1.47834
H          0.56296       -1.74221        1.31136
C         -0.12353        2.12193        1.28016
H         -1.22578        2.01939        1.20288
H          0.21200        1.68905        2.24607
H          0.12790        3.20391        1.28866
N          0.19136        2.05564       -1.16678
H          0.44107        3.07099       -1.15004
H         -0.84113        1.97780       -1.31197
