16
Coordinates from ORCA-job run	Energy:     135.2468606
C          1.22594        0.13158       -0.11744
H          1.64122        2.15919        0.39098
F         -1.70213       -0.82142        0.71106
F          2.46349        0.20011       -0.72780
C          0.74861        1.62496       -0.00027
C          0.43831       -0.74130       -1.01672
N         -0.14450       -1.46745       -1.70914
N          1.41694       -0.48503        1.20226
H          2.06967       -1.29831        1.11604
H          0.52256       -0.84430        1.61109
N         -0.32607        1.93804        0.95615
H          0.00805        1.95374        1.94787
H         -1.22710        1.43447        0.82851
N          0.41656        2.16640       -1.30526
O          1.13179        2.97512       -1.81345
O         -0.57676        1.82085       -1.87235
