14
Coordinates from ORCA-job run	Energy:      77.4139861
C          0.00452       -0.12549        0.01087
H          1.67829        1.27288        0.19257
Cl        -1.77582       -0.09381        0.12405
F          3.64014        0.12632        0.68986
C          0.58493        1.31796        0.05447
H          0.42173        1.82699       -0.92075
C          0.34650       -0.74520       -1.28348
N          0.59002       -1.19521       -2.32166
N          0.53610       -0.93790        1.11508
H          1.56410       -0.80503        1.22730
H          0.40356       -1.95944        0.91737
N          0.01743        2.13988        1.10606
O         -0.29097        3.26854        0.86521
O         -0.01320        1.75201        2.23433
