14
Coordinates from ORCA-job run	Energy:      80.8149606
C          0.01105       -0.02159       -0.13962
H          0.15964        1.93226       -1.11485
Br        -1.67507       -0.55049       -0.93361
F          3.29514       -0.14209        1.39199
C          0.03609        1.52957       -0.08479
H         -0.94147        1.88481        0.30136
C          1.05109       -0.57566       -1.03095
N          1.85091       -0.99201       -1.75701
N          0.09394       -0.61444        1.19749
H          1.01552       -0.40000        1.63297
H          0.03825       -1.65619        1.12307
N          1.06354        2.10063        0.78704
H          1.98101        1.63217        0.64766
H          0.76869        2.01666        1.78841
