15
Coordinates from ORCA-job run	Energy:     224.0680466
C          0.02031       -0.00500       -0.28758
H          1.52801        1.49195       -0.91513
F         -1.30589       -0.06781       -0.70018
H          2.42099        0.03263        0.90008
C          0.54875        1.46846       -0.34866
H          0.03058       -0.37444        0.76132
C          0.82668       -1.01462       -1.14086
H          0.23707       -1.34474       -2.02277
H          1.79328       -0.61498       -1.51188
H          1.06376       -1.93009       -0.55063
C          0.82045        2.04933        0.99139
N          1.04080        2.52169        2.01982
N         -0.40435        2.32439       -1.00381
O         -1.39401        2.65686       -0.41480
O         -0.30292        2.57601       -2.16493
