13
Coordinates from ORCA-job run	Energy:      37.2571110
C         -0.00344       -0.04918       -0.08614
H          1.67446        1.25097        0.15497
Cl        -1.77905        0.03985       -0.21819
F          3.34617       -0.10694        0.10117
C          0.60062        1.35434        0.05657
H          0.25992       -0.64271        0.81145
H          0.44429        1.96412       -0.84693
C          0.57986       -0.74282       -1.31397
H          0.22145       -1.78641       -1.38685
H          0.33057       -0.19630       -2.24565
H          1.67415       -0.77202       -1.22505
C          0.17564        2.06323        1.26349
N         -0.13180        2.65772        2.20274
