15
Coordinates from ORCA-job run	Energy:      17.1183708
C          0.30808       -0.06224       -0.05911
H          1.69655        1.57911       -0.39132
Br        -1.54453       -0.37494        0.44638
H          3.55019       -0.25516        0.45652
C          0.61423        1.44443       -0.17651
H          0.94087       -0.46866        0.75947
H          0.39950        1.92257        0.80384
C          0.63860       -0.84181       -1.33336
H         -0.00210       -0.51936       -2.17960
H          1.70540       -0.69750       -1.60611
H          0.46361       -1.92535       -1.16369
C         -0.19081        2.17496       -1.25519
H          0.03516        1.77288       -2.26359
H         -1.28006        2.09299       -1.06125
H          0.08284        3.25096       -1.24902
