16
Coordinates from ORCA-job run	Energy:      56.2340832
C          0.31109        0.02516       -0.05021
H          1.61027        1.66091       -0.68260
Br        -1.52301       -0.31187        0.51354
H          3.35326        0.31301        0.74033
C          0.57588        1.54069       -0.29003
H          0.98267       -0.31643        0.76669
C          0.63650       -0.85023       -1.26352
H         -0.02711       -0.63471       -2.12320
H          1.69426       -0.70126       -1.56885
H          0.50198       -1.91979       -0.99548
N          0.51733        2.27433        0.98179
H          1.25950        1.92038        1.62872
H         -0.41399        2.15533        1.44101
N         -0.34987        2.12401       -1.25602
O         -1.06370        3.03086       -0.94688
O         -0.35274        1.74567       -2.38797
