14
Coordinates from ORCA-job run	Energy:     125.5152269
C          1.03219       -0.02379       -0.02772
H          1.60558        1.98064       -0.34681
Br        -2.13040       -0.29240        0.24863
Br         2.91138       -0.19448        0.50468
C          0.66709        1.48155       -0.09324
H          0.45042       -0.53404        0.76709
C          0.82670       -0.74781       -1.37169
H         -0.16416       -0.54310       -1.84993
H          1.62715       -0.42696       -2.06110
H          0.87448       -1.84499       -1.22536
C          0.26223        2.02922        1.20445
N         -0.05715        2.47963        2.22119
C         -0.21827        1.93506       -1.19059
N         -0.90806        2.31698       -2.04035
