16
Coordinates from ORCA-job run	Energy:      23.4888027
C          0.72463       -0.04327       -0.14766
H          1.72198        1.86781       -0.39878
Cl        -2.19517       -0.65182        2.01607
H          1.44641       -0.34877        0.64719
C          0.71047        1.49840       -0.21547
H         -0.27759       -0.42615        0.12948
C          1.13682       -0.68029       -1.47816
H          0.39665       -0.44130       -2.27630
H          2.13731       -0.31380       -1.79529
H          1.17358       -1.78577       -1.36973
C          0.21496        2.06412        1.13437
H         -0.77910        1.65023        1.41002
H          0.93646        1.79914        1.94019
H          0.13067        3.17407        1.09286
C         -0.14725        1.99905       -1.30419
N         -0.80376        2.37698       -2.18334
