16
Coordinates from ORCA-job run	Energy:      46.9892663
C          0.88722        0.03573        0.00271
H          1.69510        1.95560       -0.63652
Cl        -2.75460       -1.05305       -0.16960
Cl         2.34810       -0.41343        0.93381
C          0.77474        1.57222       -0.13952
H         -0.00156       -0.34635        0.54804
C          0.95526       -0.66181       -1.35907
H          0.03963       -0.45651       -1.95300
H          1.84204       -0.31674       -1.93240
H          1.02595       -1.76101       -1.21538
N          0.63339        2.20369        1.17684
H          0.56501        3.24020        1.05451
H          1.48119        2.02037        1.75934
N         -0.37913        1.92044       -0.97211
H         -0.42063        2.95769       -1.10094
H         -1.26183        1.60764       -0.50713
