15
Coordinates from ORCA-job run	Energy:     113.0582335
C          0.07564       -0.02599       -0.17281
H          1.63032        1.53421       -0.45880
Br        -1.86270       -0.17494       -0.42600
H          2.26917       -0.07278        0.99981
C          0.55637        1.44766       -0.15641
H          0.24484       -0.49417        0.83343
C          0.77609       -0.82315       -1.28745
H          0.49643       -1.88824       -1.19903
H          0.39915       -0.44772       -2.25211
H          1.89260       -0.76353       -1.28911
N          0.40780        1.98856        1.19739
H          0.70530        2.98877        1.21468
H          1.11797        1.48604        1.77766
C         -0.16857        2.27134       -1.12429
N         -0.72555        2.94688       -1.87873
