16
Coordinates from ORCA-job run	Energy:      49.6689050
C          0.88014       -0.00573       -0.03949
H          1.65304        1.93917       -0.58677
F         -2.55798       -0.74554       -0.24820
Br         2.50741       -0.48371        0.92161
C          0.73008        1.53828       -0.10989
H          0.01004       -0.44494        0.49400
C          0.95041       -0.63968       -1.43167
H          0.01326       -0.44937       -1.99623
H          1.80849       -0.23085       -2.00598
H          1.07157       -1.73978       -1.33804
N          0.57942        2.15339        1.20573
O          0.51455        3.34287        1.29666
O          0.49731        1.48949        2.19666
N         -0.41426        1.89675       -0.95252
H         -0.45041        2.93432       -1.07861
H         -1.30177        1.58380       -0.49744
