13
Coordinates from ORCA-job run	Energy:      43.1134672
C          0.22655       -0.10425        0.00544
H          1.56142        1.53348       -0.24240
Cl        -1.47949       -0.41558        0.40652
F          3.33611        0.32865       -0.17420
C          0.50726        1.39181       -0.07971
H          0.85347       -0.49969        0.82920
H          0.28399        1.90160        0.86875
C          0.63614       -0.82291       -1.27420
H          0.07214       -0.45239       -2.15329
H          1.71105       -0.63821       -1.44245
H          0.47999       -1.91393       -1.18039
C         -0.14268        2.06470       -1.20212
N         -0.63173        2.62900       -2.07604
