15
Coordinates from ORCA-job run	Energy:      59.7802567
C          0.15106       -0.11295       -0.14203
H          1.51970        1.52494       -0.45921
Br        -1.69636       -0.50001        0.18729
Cl         3.30889        0.45956        1.33169
C          0.46391        1.37734       -0.17501
H          0.75805       -0.56516        0.68911
C          0.63126       -0.76646       -1.44452
H          0.09915       -0.33246       -2.32526
H          1.73316       -0.61272       -1.57599
H          0.43694       -1.86240       -1.42099
N          0.25697        1.93317        1.16086
H          0.40491        2.98686        1.14871
H          1.04845        1.58925        1.77554
C         -0.38602        2.12180       -1.13081
N         -1.01693        2.66851       -1.90525
