13
Coordinates from ORCA-job run	Energy:     122.6121147
C          1.08835       -0.02538       -0.09615
H          1.67251        2.03584       -0.10077
Cl        -1.95630       -0.29952        0.66797
Br         2.97570       -0.26788        0.34982
C          0.72813        1.48045       -0.09076
H          0.53472       -0.53449        0.71768
H          0.17597        1.74335        0.84376
C          0.76051       -0.73445       -1.40872
H         -0.32285       -0.63505       -1.64077
H          1.35419       -0.30190       -2.23637
H          0.98722       -1.81167       -1.31764
C         -0.02996        1.99423       -1.24480
N         -0.58189        2.38321       -2.18633
