15
Coordinates from ORCA-job run	Energy:     159.5702899
C          1.05737        0.00814       -0.06788
H          1.67202        2.02459       -0.31885
Br        -2.05257       -0.40482        0.34562
Cl         2.75106       -0.22047        0.46493
C          0.72584        1.53404       -0.11333
H          0.49959       -0.49522        0.74114
C          0.82609       -0.73735       -1.39285
H         -0.11607       -0.44483       -1.90327
H          1.66137       -0.53665       -2.07975
H          0.75372       -1.82785       -1.19741
C          0.25492        2.06160        1.18420
N         -0.11323        2.52000        2.18309
N         -0.17000        1.96461       -1.19261
H         -0.17736        3.01301       -1.20057
H         -1.14079        1.66261       -0.99797
