14
Coordinates from ORCA-job run	Energy:      13.8423355
C          0.08103       -0.12410        0.01377
H          1.56906        1.46751       -0.04406
Cl        -1.69410       -0.30730        0.11972
F          4.02135        0.58510       -0.50715
C          0.46628        1.36388        0.04184
H          0.54348       -0.64266        0.88144
H          0.00415        1.87824       -0.83132
C          0.57958       -0.79175       -1.26739
H          0.12855       -0.30966       -2.16102
H          1.68530       -0.71493       -1.33611
H          0.30452       -1.86794       -1.26406
N          0.03665        1.99093        1.27486
O         -0.72428        2.91118        1.24672
O          0.46377        1.61174        2.32326
