16
Coordinates from ORCA-job run	Energy:      57.3010743
C          1.27984        0.04075       -0.01169
H          1.71508        1.99696       -0.86216
F         -2.66598       -0.50777        0.44160
Cl         2.99112       -0.06824        0.51501
C          0.94063        1.53932       -0.21051
H          0.96356        2.07481        0.76381
C          1.14379       -0.71468       -1.35268
H          0.08567       -0.70077       -1.70073
H          1.77533       -0.24548       -2.13556
H          1.44980       -1.77534       -1.23709
N          0.44876       -0.55207        1.03241
O          0.46490       -0.09875        2.13391
O         -0.18959       -1.54358        0.82084
N         -0.35753        1.73665       -0.85851
H         -0.49840        2.76219       -1.01125
H         -1.12324        1.38698       -0.24473
