16
Coordinates from ORCA-job run	Energy:     189.2540985
C          0.67850        0.05036       -0.03918
H          1.63537        1.96824       -0.40750
Br        -2.21724       -0.22290        0.33197
Cl         3.53475        0.06597        0.10821
C          0.64141        1.58674       -0.13816
C          0.75155       -0.79221       -1.31699
H         -0.25768       -0.79776       -1.77210
H          1.46119       -0.34547       -2.04559
H          1.06681       -1.83312       -1.10494
C          0.77978       -0.61196        1.28063
N          0.83694       -1.10714        2.32468
N          0.25694        2.22760        1.12257
H          1.01569        2.06105        1.82542
H         -0.62355        1.81425        1.50133
C         -0.21915        2.00743       -1.24722
N         -0.89145        2.36832       -2.11948
