15
Coordinates from ORCA-job run	Energy:      86.6272677
C          1.27635       -0.03355       -0.06370
H          1.25918        2.00470        0.67589
Cl        -2.56928        0.40809       -0.10229
Br         3.19096        0.16878       -0.38182
C          0.63380        1.35116        0.04630
H         -0.32680        1.22872        0.56505
C          0.58765       -0.82679       -1.18085
H         -0.50175       -0.85908       -1.00377
H          0.75882       -0.30965       -2.14457
H          0.98509       -1.85473       -1.24717
C          1.12901       -0.72955        1.21207
N          1.02979       -1.25791        2.23890
N          0.42668        1.96852       -1.26119
H          0.39313        2.99827       -1.13956
H         -0.53363        1.69546       -1.57626
