15
Coordinates from ORCA-job run	Energy:     229.5283062
C          0.03258       -0.09136       -0.05968
H          1.18638        1.72775       -0.64597
Cl        -1.72904       -0.35511       -0.15139
Cl         3.15193        0.11932        0.58385
C          0.29045        1.44082       -0.04136
H         -0.57542        1.92988       -0.52226
C          0.72908       -0.74171       -1.28259
H         -0.03528       -0.95856       -2.04741
H          1.51999       -0.09442       -1.73833
H          1.24729       -1.67891       -1.00266
C          0.32871       -0.78565        1.20412
N          0.54377       -1.36727        2.17937
N          0.44664        1.96803        1.31461
H          0.47807        3.01132        1.28661
H          1.38833        1.67576        1.65861
