15
Coordinates from ORCA-job run	Energy:      53.6325947
C          1.09011       -0.03685        0.05307
H          1.15680        2.01327       -0.72975
F         -2.55512        0.03120        0.22910
Br         2.96831       -0.02057        0.57155
C          0.52398        1.40427       -0.04737
H         -0.48796        1.35334       -0.50417
C          0.98363       -0.72771       -1.31248
H         -0.07797       -0.78849       -1.64049
H          1.55465       -0.16235       -2.07950
H          1.39019       -1.76093       -1.26236
C          0.33847       -0.82654        1.04362
N         -0.24688       -1.44686        1.82568
N          0.39527        2.08515        1.23349
O         -0.26269        3.08071        1.26921
O          1.23110        1.93518        2.06949
