15
Coordinates from ORCA-job run	Energy:      55.3978746
C          0.40550       -0.00949        0.02530
H          1.32346        1.94904       -0.37298
F         -0.84982       -0.49291        0.35761
H          1.30920       -1.51987        1.34458
C          0.33657        1.53473       -0.07035
H         -0.39819        1.81958       -0.85365
C          0.80031       -0.60002       -1.33439
H          0.06420       -0.30307       -2.11172
H          1.80603       -0.24142       -1.64320
H          0.81905       -1.70980       -1.28159
C          1.38568       -0.46927        1.08043
N          2.57326        0.01570        1.10194
N         -0.07115        2.15432        1.19088
H          0.63888        1.97041        1.93508
H         -0.99873        1.77955        1.49325
