15
Coordinates from ORCA-job run	Energy:      25.3089846
C          0.07412       -0.06001        0.00390
H          1.52660        1.56360       -0.14524
F         -1.29459       -0.20929        0.15095
Br         4.25950       -0.33596        0.19081
C          0.42405        1.44080       -0.05416
H          0.09839        1.94167        0.88617
C          0.52324       -0.78970       -1.26598
H         -0.00171       -0.38048       -2.15478
H          1.61755       -0.67896       -1.42054
H          0.28136       -1.87205       -1.19447
C          0.72883       -0.66469        1.17532
N          1.24240       -1.14149        2.09686
N         -0.21864        2.09313       -1.19252
H          0.07110        3.09767       -1.20663
H         -1.25644        2.06212       -1.06955
