19
Coordinates from ORCA-job run	Energy:      82.4332545
C         -0.01394       -0.10720       -0.05408
H          1.60173        1.36463       -0.08078
Cl        -1.80799       -0.16942       -0.04893
H          3.78686        0.53064        0.48983
C          0.49085        1.38737       -0.04312
C          0.51503       -0.87270       -1.28735
H          0.16376       -1.92804       -1.26608
H          0.16846       -0.44167       -2.24526
H          1.62677       -0.88035       -1.29444
C          0.47220       -0.86926        1.19603
H          1.58175       -0.86200        1.25608
H          0.05842       -0.43214        2.12762
H          0.12928       -1.92599        1.16593
N          0.08114        2.06025        1.19866
H          0.31294        3.07950        1.15069
H          0.64591        1.69168        1.99548
N          0.03381        2.18409       -1.18451
O          0.42500        3.30555       -1.31054
O         -0.72937        1.74717       -1.99355
