18
Coordinates from ORCA-job run	Energy:      16.6593485
C          0.16796       -0.08819        0.00463
H          1.76687        1.41194       -0.04217
Cl        -3.26477       -0.27365       -0.40662
F          4.06920        0.21168        0.54419
C          0.65543        1.37473        0.01648
H          0.24099        1.88629       -0.87939
C          0.62145       -0.78127       -1.28524
H          0.21813       -1.81527       -1.32608
H          0.24166       -0.22996       -2.17073
H          1.73185       -0.82574       -1.33596
C          0.62111       -0.89665        1.22611
H          1.72863       -0.92139        1.29536
H          0.20342       -0.46924        2.15998
H          0.24347       -1.93783        1.15080
C          0.20245        2.15736        1.25008
H         -0.90463        2.13550        1.33334
H          0.65396        1.74500        2.17332
H          0.53307        3.21337        1.15634
