19
Coordinates from ORCA-job run	Energy:     203.1193554
C          0.58191       -0.04975        0.01948
H          1.68655        1.83565        0.13437
Cl        -2.24620       -0.04312        0.34172
Cl         3.47213       -0.06755       -0.45028
C          0.64835        1.50095        0.01907
C          0.52721       -0.87214       -1.27846
H         -0.53462       -1.10156       -1.48744
H          0.95048       -0.33735       -2.14791
H          1.07607       -1.82924       -1.16872
C          0.71557       -0.83558        1.32363
H          1.75463       -1.15058        1.54494
H          0.33678       -0.22708        2.16274
H          0.06953       -1.73175        1.24318
C         -0.01106        2.09091        1.18935
N         -0.51656        2.60690        2.09382
C          0.10984        2.10687       -1.27489
H          0.79311        1.85702       -2.11381
H         -0.90658        1.72923       -1.50979
H          0.08108        3.20953       -1.18729
