18
Coordinates from ORCA-job run	Energy:     295.3265011
C          0.24383       -0.06336       -0.01454
H          1.66108        1.64069        0.00011
F         -1.14912       -0.04877       -0.06352
H          2.73989       -0.04182        0.09625
C          0.58370        1.43029       -0.00357
C          0.71613       -0.78906       -1.29187
H         -0.20681       -1.23425       -1.69123
H          1.09697       -0.08546       -2.05392
H          1.50142       -1.56164       -1.15507
C          0.62669       -0.80674        1.28250
H          1.34186       -1.64030        1.16149
H          1.06125       -0.15387        2.06448
H         -0.33488       -1.17265        1.67004
C         -0.00902        2.04232        1.20447
N         -0.45805        2.56223        2.14063
N         -0.00328        2.02042       -1.20581
H          0.10088        3.05015       -1.17736
H         -1.03044        1.82546       -1.20314
