20
Coordinates from ORCA-job run	Energy:      41.7409522
C          0.12753       -0.08550       -0.01689
H          1.67547        1.45388       -0.08040
Br        -3.38001       -0.32840       -0.13894
F          3.98627       -0.00200        0.28678
C          0.56582        1.40411       -0.01676
C          0.63594       -0.80694       -1.27415
H          0.26296       -1.85277       -1.29140
H          0.26736       -0.30533       -2.19264
H          1.74692       -0.82174       -1.29386
C          0.56715       -0.86183        1.23329
H          1.67108       -0.84702        1.34178
H          0.09822       -0.44062        2.14474
H          0.22489       -1.91584        1.16166
C          0.13612        2.15618        1.25403
H         -0.96626        2.11321        1.38178
H          0.62851        1.73478        2.15389
H          0.44858        3.21998        1.18684
N          0.00230        2.07209       -1.19303
H          0.33890        3.06120       -1.23921
H         -1.04339        2.07442       -1.13734
