18
Coordinates from ORCA-job run	Energy:      83.1347519
C          1.06246       -0.06914        0.13451
H          1.68125        1.81110       -0.77047
Br        -2.58253       -0.85012       -1.10798
F          2.33297       -0.36737        0.61054
C          0.93011        1.47833       -0.02310
C          0.96440       -0.77671       -1.22501
H          0.92422       -1.87979       -1.09131
H          0.09966       -0.44573       -1.82884
H          1.88678       -0.55433       -1.80612
C          0.07501       -0.62863        1.17804
H          0.41659       -0.34078        2.19593
H         -0.95217       -0.23948        1.05375
H          0.05281       -1.73969        1.14552
N          1.19306        2.13887        1.24960
H          1.16017        3.17338        1.11997
H          2.16442        1.89478        1.56020
C         -0.38579        1.95503       -0.52723
N         -1.38953        2.38610       -0.91224
