18
Coordinates from ORCA-job run	Energy:     191.0071061
C          0.55365       -0.04445        0.00758
H          1.71568        1.79239       -0.08084
Cl        -2.30371       -0.03181        0.18738
Cl         3.55145       -0.07583       -0.08405
C          0.66258        1.49079       -0.00880
C          0.69037       -0.80354       -1.31346
H         -0.33033       -1.05817       -1.66766
H          1.18227       -0.17071       -2.07982
H          1.27225       -1.73629       -1.17501
C          0.61226       -0.85409        1.30369
H          1.64569       -1.12313        1.58394
H          0.14193       -0.28723        2.13165
H          0.01533       -1.77716        1.15770
C          0.15448        2.11283        1.23606
N         -0.23168        2.62948        2.19535
N         -0.01631        2.01880       -1.19318
H          0.15232        3.04280       -1.26530
H         -1.04483        1.84619       -1.16521
