18
Coordinates from ORCA-job run	Energy:      76.9697180
C         -0.02872       -0.10387       -0.00274
H          1.57514        1.31430        0.04106
Cl        -1.82281       -0.14546       -0.03705
F          3.40889        0.11857        0.02420
C          0.48616        1.35281        0.01675
C          0.51563       -0.81757       -1.25048
H          0.21105       -1.88422       -1.26691
H          0.15846       -0.32367       -2.17715
H          1.62137       -0.77661       -1.25042
C          0.48030       -0.84789        1.24051
H          1.58578       -0.79189        1.27500
H          0.08670       -0.38546        2.16817
H          0.18531       -1.91654        1.22002
C          0.10786        2.10383        1.22348
N         -0.17798        2.67904        2.18756
N          0.12471        2.07426       -1.19589
H          0.77578        2.88444       -1.31049
H         -0.85701        2.42385       -1.12502
