16
Coordinates from ORCA-job run	Energy:     265.7535743
C          0.20888       -0.07028       -0.01160
H          1.48445        1.83258        0.29709
F         -1.17454       -0.10510       -0.00537
Cl         3.38033        0.06059       -0.12385
C          0.47856        1.46273        0.01285
H         -0.18426        1.85935        0.81138
C          0.60607       -0.85798       -1.30024
H         -0.33924       -1.27250       -1.70632
H          1.03172       -0.22769       -2.11029
H          1.27364       -1.73580       -1.14205
C          0.64945       -0.78514        1.29847
H          1.36766       -1.63322        1.17515
H          1.07685       -0.09363        2.06194
H         -0.26546       -1.21431        1.74353
C          0.08089        2.07314       -1.26607
N         -0.28575        2.53118       -2.26317
