15
Coordinates from ORCA-job run	Energy:      11.3378776
C          0.07667        0.01657       -0.00809
H          1.82456        1.33568        0.01872
Cl        -1.70276        0.19733       -0.04009
F          4.06109       -0.37963        0.06806
C          0.71657        1.41143       -0.00090
H          0.38692        1.98453        0.89252
H          0.41897        1.97963       -0.90801
C          0.51855       -0.75966       -1.25671
H          0.04517       -1.76477       -1.27633
H          0.21908       -0.21553       -2.17803
H          1.62196       -0.89025       -1.26818
C          0.47432       -0.75313        1.25881
H          1.57623       -0.88336        1.31008
H          0.14226       -0.20409        2.16617
H          0.00019       -1.75798        1.26719
