17
Coordinates from ORCA-job run	Energy:     161.9207829
C          0.07582       -0.10633        0.01263
H          1.58901        1.40800       -0.00862
F         -1.30675       -0.20924        0.05137
H          3.09786       -0.02500       -0.10499
C          0.48450        1.36650        0.00518
C          0.59916       -0.80744       -1.26517
H         -0.24983       -1.08637       -1.92680
H          1.26814       -0.13932       -1.85273
H          1.20699       -1.70225       -1.02320
N          0.62038       -0.71941        1.22116
H          1.65210       -0.79472        1.13927
H          0.23751       -1.67708        1.34434
C          0.02272        2.07114        1.21195
N         -0.33238        2.61216        2.17402
N         -0.02189        2.03431       -1.18081
H          0.34173        3.01192       -1.19816
H         -1.06393        2.06860       -1.13217
