15
Coordinates from ORCA-job run	Energy:      68.4730238
C          0.07412       -0.14153        0.07021
H          1.53741        1.43508        0.01031
F         -1.29223       -0.28539        0.20281
F          3.34047        0.19034       -0.05350
C          0.45178        1.33703        0.02453
H          0.08659        1.81250       -0.90375
C          0.50858       -0.81327       -1.23754
H         -0.00815       -0.34935       -2.10796
H          1.59972       -0.70244       -1.36813
H          0.25247       -1.89058       -1.22126
N          0.72305       -0.75587        1.22370
H          1.73813       -0.59148        1.15351
H          0.63269       -1.78861        1.17617
C         -0.06791        2.08420        1.17374
N         -0.46356        2.69902        2.06692
