16
Coordinates from ORCA-job run	Energy:      48.8299526
C          0.00186       -0.06215       -0.08035
H          1.64271        1.36117       -0.13700
Cl        -1.78134       -0.11100        0.07690
H          3.12612       -0.66359        0.53620
C          0.53250        1.39415       -0.06448
H          0.42773       -0.61076        0.78936
N          0.39847       -0.75198       -1.30686
H          0.05936       -1.74018       -1.26423
H          1.44210       -0.78020       -1.36574
N          0.18494        2.04091        1.19673
O         -0.46999        3.04082        1.21995
O          0.57935        1.58101        2.22566
C          0.02827        2.19689       -1.28286
H          0.34580        1.71165       -2.22956
H         -1.07862        2.28136       -1.27900
H          0.46171        3.21969       -1.26601
