13
Coordinates from ORCA-job run	Energy:     110.5120698
C          0.44852       -0.03565       -0.07699
H          1.72894        1.67789       -0.22745
Br        -2.40826       -0.19254       -0.01311
F          2.96844       -0.25464        0.52765
C          0.67424        1.46600       -0.09124
H          0.48878       -0.63538        0.86897
N          0.71141       -0.72799       -1.34000
H          0.00083       -1.48965       -1.41636
H          1.65284       -1.17220       -1.31330
C          0.28021        2.07459        1.18694
N         -0.00994        2.53214        2.21062
C         -0.04492        2.07256       -1.21850
N         -0.58214        2.61767       -2.08671
