14
Coordinates from ORCA-job run	Energy:     143.9776757
C          1.03304       -0.05679        0.00584
H          1.77502        1.94127       -0.10967
Cl        -2.24463       -0.23351       -0.05086
F          2.31547       -0.27932        0.48731
C          0.78087        1.46960       -0.01172
H          0.33276       -0.56848        0.70163
N          0.91376       -0.65477       -1.31974
H         -0.09819       -0.65426       -1.58685
H          1.19223       -1.65712       -1.25343
N          0.14864        1.92518        1.22126
O         -0.47360        2.94788        1.23314
O          0.50308        1.46520        2.26558
C          0.05312        1.97303       -1.21179
N         -0.48461        2.34943       -2.16011
