15
Coordinates from ORCA-job run	Energy:      68.1136520
C          0.85386       -0.05359        0.01386
H          1.74947        1.87368       -0.37380
Br        -2.62292       -0.31451       -0.18433
F          2.02470       -0.38518        0.68178
C          0.75197        1.48902       -0.09559
H          0.00901       -0.44314        0.61749
N          0.81812       -0.70824       -1.29535
H          0.48803       -1.69378       -1.17181
H          1.77402       -0.72360       -1.71415
C          0.31415        2.07562        1.25331
H         -0.72323        1.75222        1.50458
H          0.98904        1.72353        2.05979
H          0.33519        3.18494        1.22487
C         -0.15983        1.94554       -1.16632
N         -0.86238        2.33906       -1.99695
