13
Coordinates from ORCA-job run	Energy:      30.3169490
C          0.92181       -0.07044        0.04321
H          1.64083        1.92564       -0.43774
F         -2.37196        0.16374        0.00683
F          2.03407       -0.32984        0.82992
C          0.70822        1.44661       -0.06449
H          0.03629       -0.54796        0.51348
H         -0.10021        1.64894       -0.80202
N          1.12732       -0.64276       -1.28272
H          0.24113       -0.54019       -1.83085
H          1.30885       -1.66749       -1.18013
N          0.33996        2.01914        1.21496
O         -0.69392        2.60081        1.33402
O          1.07895        1.93128        2.15119
