16
Coordinates from ORCA-job run	Energy:      46.9704451
C          0.78959        0.04783        0.34024
H          1.63141        1.86714       -0.51019
F         -1.99001       -0.42466       -3.10526
H          1.67419       -0.14399        0.98655
C          0.71726        1.56202        0.04756
H         -0.11884       -0.28878        0.88914
N          0.94931       -0.72970       -0.88584
H          0.06992       -0.68759       -1.44657
H          1.09429       -1.73139       -0.62353
C          0.69108        2.35354        1.35811
H         -0.20506        2.08934        1.96013
H          1.60203        2.13823        1.95727
H          0.66710        3.44323        1.14220
N         -0.46391        1.91021       -0.74642
H         -1.33491        1.56777       -0.27764
H         -0.39818        1.50332       -1.70627
