14
Coordinates from ORCA-job run	Energy:     137.5808645
C          0.79657       -0.08387        0.10488
H          1.73095        1.66882       -0.63436
F         -1.77268        0.00509       -0.70898
F          1.97615       -0.26954        0.80663
C          0.75602        1.45091       -0.17307
H         -0.01271       -0.44812        0.77749
N          0.88352       -0.85742       -1.13384
H         -0.03401       -1.23757       -1.46815
H          1.46324       -1.69475       -0.92196
C          0.71450        2.13121        1.13435
N          0.65458        2.65397        2.16867
N         -0.26229        1.97227       -1.09070
O         -1.08042        2.76087       -0.71731
O         -0.09846        1.86062       -2.26583
