15
Coordinates from ORCA-job run	Energy:      88.7801503
C          0.15846       -0.04820       -0.05148
H          1.65970        1.57665       -0.15039
F         -1.21581       -0.12006        0.06896
Cl         3.12943       -0.53390        0.53447
C          0.55569        1.43895       -0.06878
H          0.57406       -0.57552        0.83577
N          0.56509       -0.70572       -1.30222
H         -0.22973       -1.30396       -1.60011
H          1.39591       -1.33549       -1.20160
C          0.12249        2.09493        1.18190
N         -0.20543        2.64075        2.14684
C         -0.09386        2.12563       -1.26242
H          0.21512        1.61111       -2.19583
H         -1.19429        2.06626       -1.16926
H          0.21445        3.18820       -1.32340
