17
Coordinates from ORCA-job run	Energy:     169.1718466
C          0.03196       -0.12448        0.11817
H          1.46958        1.54147        0.36821
Br        -1.87750       -0.40091        0.45511
F          2.92648       -0.05934       -0.19212
C          0.40493        1.40405        0.10751
N          0.28838       -0.74360       -1.20009
H         -0.19152       -1.66559       -1.24560
H          1.28628       -0.93071       -1.43442
N          0.77665       -0.81914        1.16961
O          1.06280       -0.25453        2.18323
O          1.00876       -1.98623        1.07256
C         -0.33816        2.17619        1.12476
N         -0.82852        2.81066        1.96341
C          0.25265        2.06915       -1.25877
H          0.95885        1.58696       -1.96767
H         -0.77951        1.98133       -1.65278
H          0.54429        3.14020       -1.18979
