14
Coordinates from ORCA-job run	Energy:     217.9144868
C          0.05999       -0.07502       -0.07623
H          1.18322        1.76403       -0.64135
F         -1.29440       -0.20665       -0.30142
Br         3.21490       -0.00129        0.70803
C          0.31748        1.45182       -0.00487
H         -0.60768        1.90519       -0.41096
N          0.76967       -0.67557       -1.22133
H          0.06113       -1.21193       -1.76150
H          1.56479       -1.32513       -0.99583
C          0.19118       -0.81348        1.19056
N          0.27675       -1.41853        2.17225
N          0.47072        1.97095        1.35251
H          0.41439        3.01692        1.33146
H          1.43210        1.73775        1.67667
