14
Coordinates from ORCA-job run	Energy:      86.2630752
C          0.07159       -0.09108       -0.02140
H          1.62455        1.51597       -0.11153
Cl        -1.71432       -0.15109        0.00448
F          2.96775       -0.21555        0.28474
C          0.53443        1.39469       -0.03025
N          0.54604       -0.75688       -1.24738
H         -0.01523       -1.61020       -1.43455
H          1.54764       -1.05220       -1.22394
C          0.48843       -0.82063        1.20602
N          0.76763       -1.37272        2.18688
C          0.14810        2.08771        1.20955
N         -0.14089        2.61901        2.19525
C          0.01852        2.10408       -1.21292
N         -0.37661        2.68034       -2.13577
