16
Coordinates from ORCA-job run	Energy:      97.7540370
C          0.00544       -0.12707       -0.12142
H          1.50171        1.49434       -0.35524
Cl        -1.77029       -0.30749       -0.28507
F          2.90361       -0.00056        0.68837
C          0.42518        1.39212       -0.12851
N          0.65692       -0.80420       -1.24847
H          0.27794       -1.76985       -1.35193
H          1.68695       -0.90192       -1.08283
C          0.34454       -0.80872        1.14727
N          0.57316       -1.32777        2.16767
C          0.21156        2.07181        1.22093
H         -0.82443        1.93738        1.58827
H          0.91709        1.62527        1.95408
H          0.45774        3.15005        1.15369
C         -0.27012        2.14971       -1.18344
N         -0.79817        2.72380       -2.04150
