14
Coordinates from ORCA-job run	Energy:     195.0218391
C          0.02072       -0.07808       -0.09010
H          1.12535        1.77350       -0.70827
F         -1.31266       -0.20415       -0.43539
F          2.74624        0.08292        0.70793
C          0.30962        1.45272       -0.01292
H         -0.60815        1.94978       -0.39458
N          0.80520       -0.70293       -1.16719
H          0.25597       -1.49790       -1.54949
H          1.73002       -1.11238       -0.89144
C          0.12829       -0.83734        1.17893
N          0.17964       -1.40310        2.18844
N          0.55350        1.97268        1.33523
H          0.60251        3.01739        1.28957
H          1.49816        1.68247        1.66028
