13
Coordinates from ORCA-job run	Energy:      51.3929032
C          1.19989       -0.02695       -0.17311
H          0.98372        1.94456        0.76708
F         -2.30554       -0.20353        0.33825
F          2.50463        0.13164       -0.63702
C          0.53056        1.34889       -0.05284
H         -0.53901        1.24357        0.19973
N          0.46856       -0.88929       -1.11732
H         -0.55410       -0.87706       -0.91475
H          0.77021       -1.88841       -1.02171
C          1.28488       -0.67169        1.15411
N          1.37080       -1.14471        2.20781
C          0.60590        2.12362       -1.29546
N          0.70244        2.73370       -2.27369
