13
Coordinates from ORCA-job run	Energy:      82.2108483
C          0.39382       -0.03131       -0.03052
H          1.82246        1.69402        0.00912
Br        -2.61700       -0.02247        0.19761
F          3.31870       -0.26730        0.02118
C          0.74646        1.47271       -0.03674
H          0.24414        1.90981        0.84594
N          0.59782       -0.78242       -1.27582
H         -0.10493       -1.55549       -1.27645
H          1.55046       -1.19233       -1.37458
C          0.64658       -0.78190        1.21322
N          0.82133       -1.34035        2.21781
C          0.15811        2.08707       -1.24701
N         -0.27335        2.61220       -2.16757
