16
Coordinates from ORCA-job run	Energy:      58.7506674
C         -0.07346       -0.03075       -0.03033
H          1.54284        1.45646       -0.17682
F         -1.45673       -0.00480       -0.02691
F          3.74186        0.21562        0.57481
C          0.44936        1.42869        0.01638
H         -0.05360        2.00098       -0.78987
N          0.38727       -0.64707       -1.27619
H          0.01756       -1.62189       -1.34745
H          1.43378       -0.69541       -1.28834
C          0.38665       -0.86631        1.17285
H          1.49323       -0.88750        1.25175
H         -0.03891       -0.45851        2.11611
H          0.01595       -1.91060        1.07638
N          0.18195        2.07041        1.30479
H          0.43158        3.08139        1.21963
H          0.84555        1.67306        2.01172
