17
Coordinates from ORCA-job run	Energy:     220.6469180
C          1.14543       -0.03759       -0.02514
H          1.90463        1.97109       -0.03122
Cl        -2.31432       -0.17877        0.50744
H          2.20569       -0.16677       -0.32227
C          0.89691        1.51528       -0.09440
N          0.39811       -0.83061       -1.01911
H         -0.14915       -0.36368       -1.76935
H          0.07169       -1.77686       -0.73178
C          1.05208       -0.67806        1.36880
H          1.85359       -0.28053        2.01870
H          0.06728       -0.52123        1.85702
H          1.20269       -1.77543        1.27084
N          0.14746        2.12692        1.01028
H          0.67915        2.06546        1.90726
H         -0.80648        1.74843        1.14269
C          0.33717        1.94578       -1.38777
N         -0.07447        2.25807       -2.42344
