18
Coordinates from ORCA-job run	Energy:      76.3736698
C          1.21978       -0.01730        0.26496
H          1.66853        1.74741       -0.90484
F         -2.54792       -1.02774       -1.38079
H          2.26885       -0.12032        0.62318
C          0.99468        1.48396       -0.05796
N          1.09501       -0.82853       -0.94951
H          0.10425       -0.86351       -1.27694
H          1.40029       -1.80870       -0.74745
C          0.28231       -0.55170        1.36201
H          0.51310       -1.61866        1.56779
H          0.41279        0.00854        2.30939
H         -0.77888       -0.47832        1.04182
N          1.37741        2.31573        1.08570
H          0.67325        2.22897        1.85294
H          1.40349        3.31832        0.78931
N         -0.39399        1.76553       -0.43774
H         -0.64185        1.24999       -1.31066
H         -0.49080        2.78523       -0.64852
