18
Coordinates from ORCA-job run	Energy:     174.2648460
C          1.13679       -0.09604       -0.05610
H          1.87438        1.92683       -0.00372
F         -2.03339        0.27594        0.20842
H          2.22828       -0.22783       -0.22455
C          0.87162        1.45299       -0.02890
N          0.48480       -0.76866       -1.18602
H         -0.54207       -0.67131       -1.12420
H          0.65526       -1.79635       -1.13864
C          0.78325       -0.80005        1.26304
H          1.29693       -0.32201        2.12294
H         -0.30770       -0.73868        1.42854
H          1.07337       -1.86783        1.22393
C          0.21023        1.95446        1.19749
N         -0.27726        2.32864        2.17926
C          0.14790        1.98612       -1.26936
H          0.63899        1.62395       -2.19597
H         -0.90336        1.64611       -1.28201
H          0.14787        3.09489       -1.26880
