18
Coordinates from ORCA-job run	Energy:     104.0450877
C         -0.04641       -0.07949       -0.10519
H          1.60409        1.35081       -0.29644
F         -1.43178       -0.03840       -0.20985
H          3.34557        0.14805        0.80534
C          0.50592        1.37615       -0.11804
N          0.49294       -0.82210       -1.24967
H          0.10139       -1.79139       -1.26051
H          1.53244       -0.90645       -1.14635
N          0.28420       -0.77634        1.14244
H          1.31548       -0.89970        1.24154
H         -0.17413       -1.71733        1.15261
C          0.34614        2.08791        1.23621
H         -0.71532        2.12391        1.55585
H          0.93975        1.56161        2.01490
H          0.74543        3.12198        1.16336
N         -0.12081        2.15249       -1.18175
O         -1.17967        2.67259       -0.97470
O          0.17817        1.91983       -2.31332
