16
Coordinates from ORCA-job run	Energy:      54.3486882
C         -0.17635       -0.05406       -0.34058
H          0.01118        1.98771       -1.05633
F         -1.17804       -0.33534       -1.25609
F          3.16805       -0.62029        2.02025
C         -0.20127        1.47208       -0.09365
H         -1.22310        1.76535        0.23328
N          1.10362       -0.47518       -0.91916
H          1.05571       -1.49251       -1.15890
H          1.88319       -0.34419       -0.23761
N         -0.45591       -0.79615        0.89282
H          0.33497       -0.69398        1.56901
H         -0.55011       -1.81413        0.67089
C          0.78933        1.97880        0.95974
H          0.56121        1.54798        1.95652
H          1.83582        1.73982        0.68242
H          0.70008        3.08252        1.04210
