13
Properties=species:S:1:pos:R:3 Coordinates=T from=T ORCA-job=T run=T Energy:=T 105.7493856=T pbc="F F F"
C        0.95148056       0.13335543      -0.21394437
H        1.82689618       2.08139461      -0.22430773
Br      -2.32461019      -1.49332175       0.85902654
Cl       2.16024796      -0.46737870       1.04526309
C        0.81964335       1.65376702      -0.14085031
H        1.33036750      -0.18419653      -1.17717406
H        0.00675973      -0.34624318       0.04482631
C        0.20072346       2.07542396       1.19745195
H       -0.70261834       1.48994702       1.39132221
H        0.91406526       1.86425213       1.99189203
H       -0.04801126       3.13870972       1.20950968
C        0.06208469       2.21112180      -1.27706435
N       -0.46088889       2.75546845      -2.18191099
