13
Properties=species:S:1:pos:R:3 Coordinates=T from=T ORCA-job=T run=T Energy:=T 42.1835815=T pbc="F F F"
C        0.61101175       0.05477659      -0.37537563
H        1.67632333       1.85465184      -0.69289778
Br      -0.92208254      -0.65291546       0.78211745
F        0.95313700      -0.03717993       2.25088542
C        0.67518584       1.58146658      -0.33189372
H        0.42130843      -0.31588000      -1.37896417
H        1.44964608      -0.41329725       0.13412106
N        0.45501481       2.10083281       1.01596461
H        1.08558750       2.87282702       1.17719446
H        0.68019118       1.30048323       1.69685793
N       -0.26840191       2.14738726      -1.29853823
H       -0.09845750       3.14886315      -1.34502075
H       -1.19618396       2.02285418      -0.90203064
