11
Properties=species:S:1:pos:R:3 Coordinates=T from=T ORCA-job=T run=T Energy:=T 127.6195324=T pbc="F F F"
C        0.90485850       0.08025742      -0.01499231
H        1.85284841       2.05654975      -0.01308506
Br      -2.16843486      -1.22479392       0.12114089
Br       2.77916754      -0.52794380       0.07224691
C        0.82783427       1.64094107      -0.00835241
H        0.48669733      -0.34821553      -0.91564112
H        0.34024774      -0.37106098       0.78896731
C        0.18184422       2.16573848       1.21530978
N       -0.26128403       2.58042728       2.22555684
C        0.17363596       2.17124530      -1.22649058
N       -0.26203507       2.59578495      -2.23681026
