12
Properties=species:S:1:pos:R:3 Coordinates=T from=T ORCA-job=T run=T Energy:=T 32.1135841=T pbc="F F F"
C        0.46717814       0.13929306       0.32615957
H        1.30217367       1.75046108      -0.81112039
Br      -0.29785252      -2.01900291      -2.56425249
Cl       2.01706177      -0.55994003       1.03044894
C        0.59064098       1.63424716       0.01590495
H        0.28936117      -0.45122045      -0.57013251
H       -0.29513245      -0.01245383       1.07972665
N        1.03228963       2.37338690       1.19690319
H        1.16353404       3.35088084       0.96334509
H        1.92852305       2.00096426       1.49642076
C       -0.70822421       2.20254322      -0.42775694
N       -1.70573327       2.75346072      -0.72341682
