13
Properties=species:S:1:pos:R:3 Coordinates=T from=T ORCA-job=T run=T Energy:=T 42.0296083=T pbc="F F F"
C        0.29738482      -0.09359801      -0.03459611
H        1.70443426       1.32641132      -0.01736627
Br      -1.59849065      -0.64653587       0.14501262
F        2.91407764       0.44808813      -0.02875821
C        0.54060390       1.40426437      -0.00541619
H        0.65004493      -0.51972101      -0.96730801
H        0.83113817      -0.55589701       0.79255323
C       -0.00684141       2.07214287       1.25130713
H       -1.08667966       1.91692906       1.32586651
H        0.46431641       1.63044728       2.13290984
H        0.19277404       3.14808444       1.26399387
C        0.08225796       2.06580625      -1.21565429
N       -0.28799040       2.60226819      -2.19607412
