13
Properties=species:S:1:pos:R:3 Coordinates=T from=T ORCA-job=T run=T Energy:=T 42.3354801=T pbc="F F F"
C        0.08819195      -0.04994064       0.00011624
H        1.84905476       1.27472483       0.02347663
Br      -1.82135983      -0.31799155       0.27118611
F        2.89392421       0.98528520      -0.09553948
C        0.49534465       1.36111965      -0.01691524
H        0.34045679      -0.48450347      -0.95644488
H        0.60559314      -0.56424986       0.80364857
N        0.01531862       1.99512586       1.20697472
O       -0.61811183       3.04286860       1.14504780
O        0.30710341       1.40830084       2.24923025
N        0.19673823       2.07593528      -1.26310181
O        0.78118836       3.12641243      -1.53196673
O       -0.60277247       1.49706283      -2.01192218
