13
Properties=species:S:1:pos:R:3 Coordinates=T from=T ORCA-job=T run=T Energy:=T 34.7318345=T pbc="F F F"
C        0.13594105      -0.04599551      -0.05679336
H        1.64011155       1.43785810      -0.15797518
Br      -1.81698257      -0.22769861      -0.06108262
Cl       3.38495298      -0.01171417       0.51109159
C        0.55018871       1.41096534      -0.00380552
H        0.50987669      -0.54346038      -0.94749882
H        0.50265714      -0.54471805       0.83894456
N        0.18267681       2.03153679       1.23810461
H        0.32213907       3.03299682       1.16264914
H        0.85281757       1.69749263       1.91812641
N       -0.01073839       2.14045534      -1.20871556
O       -0.38267433       3.30665238      -1.07359867
O        0.01775369       1.54096933      -2.28213659
