15
Properties=species:S:1:pos:R:3 Coordinates=T from=T ORCA-job=T run=T Energy:=T 16.8445757=T pbc="F F F"
C        0.56937670       0.01387282      -0.25001473
H        1.51786484       1.74717539      -0.61785687
Cl      -0.63007657      -0.72579536       0.99572054
F        1.62659356      -0.41249901       1.93088616
C        0.48813251       1.52451182      -0.32283605
H        0.49121640      -0.51253821      -1.20367605
H        1.42206754      -0.21107392       0.41712202
C        0.32637078       2.02869518       1.09707389
H       -0.69543357       1.91663595       1.45256966
H        0.95252797       1.33404734       1.66221777
H        0.61180553       3.08173930       1.17774895
C       -0.38895964       2.18963167      -1.37139657
H       -0.11417258       1.82268170      -2.36150511
H       -1.45523249       2.02295744      -1.22604844
H       -0.19873098       3.26739794      -1.36297516
