13
Properties=species:S:1:pos:R:3 Coordinates=T from=T ORCA-job=T run=T Energy:=T 37.9956979=T pbc="F F F"
C        0.67071079       0.01993226       0.08051275
H        1.93234744       1.73033182      -0.15356827
F       -1.43816799       0.14348200      -1.49551580
F        1.62206315      -0.49072256       0.98264527
C        0.86854813       1.51607832      -0.03026891
H        0.81171441      -0.43885955      -0.89729989
H       -0.33473732      -0.19977204       0.40332676
N        0.54097111       2.14738687       1.35005723
O       -0.63186552       2.05525378       1.70627973
O        1.42067756       2.71805795       1.99443736
N        0.04976264       2.07104824      -1.01709986
H       -0.46618432       2.83105874      -0.58286248
H       -0.66620007       1.29962417      -1.29874389
