13
Properties=species:S:1:pos:R:3 Coordinates=T from=T ORCA-job=T run=T Energy:=T 40.7586295=T pbc="F F F"
C        0.94348768       0.08136720      -0.07659358
H        1.72739779       2.08161128      -0.35777701
F       -1.67015618      -0.17285406      -0.79757381
Cl       2.28074443      -0.41661445       0.99918645
C        0.77894946       1.58126236      -0.14077272
H        1.18568665      -0.28964119      -1.07251807
H        0.00888437      -0.35935327       0.22283930
N        0.49113129       2.13511336       1.27790287
O        0.88649442       3.28249161       1.50454622
O       -0.22234615       1.47417426       2.02999519
N       -0.25123423       1.95068371      -1.01684042
H       -0.69094655       2.77044208      -0.62194511
H       -0.96093297       1.15026711      -1.01662930
