10
Properties=species:S:1:pos:R:3 Coordinates=T from=T ORCA-job=T run=T Energy:=T 42.2635182=T pbc="F F F"
C        1.06821879      -0.03983170      -0.16743721
H        1.23735821       1.95382044       0.57673752
F       -1.51231671       0.36393705       1.09289202
F        2.33715781      -0.09980477      -0.76372070
C        0.56227145       1.36702473      -0.04861835
H        0.38620123      -0.62712188      -0.77839614
H        1.14064978      -0.49901604       0.82193357
H       -0.47317631       1.16072407       0.47791564
C        0.37666131       2.01929587      -1.32485877
N        0.22515445       2.54492223      -2.36518757
