13
Properties=species:S:1:pos:R:3 Coordinates=T from=T ORCA-job=T run=T Energy:=T 38.8507178=T pbc="F F F"
C        0.13276345       0.07580795      -0.24924018
H        1.44439878       1.62817013      -0.81856155
F       -0.25903387      -0.31075060      -1.55672175
H        2.70546412       0.21541998       1.99118449
C        0.51904748       1.54254193      -0.23372672
H        0.97602946      -0.53932193       0.05262853
H       -0.72146234      -0.10786978       0.40415063
N        0.71129120       1.95885743       1.14682307
H        1.15408758       2.87159943       1.10478879
H        1.42984274       1.31964615       1.55342568
N       -0.48378704       2.41315827      -0.86640541
H       -1.08635905       2.74071885      -0.11858132
H       -1.03171251       1.81122218      -1.46457427
