10
Properties=species:S:1:pos:R:3 Coordinates=T from=T ORCA-job=T run=T Energy:=T 64.0037153=T pbc="F F F"
C        1.02079462      -0.01074761      -0.10826895
H        1.09349153       2.01090794       0.65309293
Cl      -2.06705003      -0.20526525       1.12667866
Br       2.86342019      -0.14388977      -0.73567737
C        0.51491612       1.42680452      -0.06639780
H        0.42079718      -0.61627941      -0.78166185
H        1.00103744      -0.44470579       0.88805509
H       -0.52065061       1.34903464       0.29052553
C        0.54444749       2.11712331      -1.34941604
N        0.56296607       2.67993742      -2.38059022
