15
Properties=species:S:1:pos:R:3 Coordinates=T from=T ORCA-job=T run=T Energy:=T 97.3028105=T pbc="F F F"
C        0.80848913      -0.00088996       0.13558066
H        1.77411381       1.86292294       0.29599256
Br      -2.85539674      -0.78359492      -1.75753835
F        1.88255119      -0.37210225      -0.69456383
C        0.74271299       1.52029664       0.17601240
H       -0.09494855      -0.50119939      -0.21981775
N        1.18083294      -0.55863977       1.46489292
O        1.99055332       0.09880040       2.12666374
O        0.75547364      -1.68114524       1.74374914
C       -0.00199455       2.02711711       1.33306900
N       -0.51384974       2.43897896       2.30883775
C        0.18418041       2.05490171      -1.15671297
H        0.83940208       1.74352964      -1.97603312
H       -0.82801177       1.67881513      -1.35092683
H        0.15997181       3.15005900      -1.12656529
