12
Properties=species:S:1:pos:R:3 Coordinates=T from=T ORCA-job=T run=T Energy:=T 200.9250166=T pbc="F F F"
C        0.90906458       0.04679196       0.10494836
H        1.90848683       1.74228916       0.84162220
Cl      -2.28819368      -0.81770603      -1.06184018
F        2.02478940      -0.27420352      -0.68290162
C        0.96249317       1.53818382       0.35124518
H        0.00475094      -0.32304848      -0.39794610
H        0.98695136       1.99499339      -0.63920140
N        1.08204790      -0.74482847       1.35654278
O        1.22397206      -0.11354863       2.40945683
O        1.07918502      -1.97018822       1.24685829
C       -0.12781956       2.13698365       1.11638584
N       -1.02652801       2.65503137       1.66726980
