12
Properties=species:S:1:pos:R:3 Coordinates=T from=T ORCA-job=T run=T Energy:=T 97.4695214=T pbc="F F F"
C        0.27174601      -0.06860470       0.07344166
H        1.69913766       1.43654905       0.44102631
Br      -1.64872869      -0.31967236      -0.22917995
Cl       3.38585980       0.13676578      -0.51801780
C        0.63414162       1.40285631       0.18892148
H        0.82048876      -0.55378471      -0.73182183
H        0.52265934       1.82927746      -0.80789119
N        0.59026267      -0.82990887       1.32408494
O        0.58984086      -0.18681426       2.36749357
O        0.77913166      -2.03579559       1.21032790
C       -0.15922492       2.18032994       1.13180114
N       -0.77708477       2.84133195       1.88146376
