16
Properties=species:S:1:pos:R:3 Coordinates=T from=T ORCA-job=T run=T Energy:=T 69.0324410=T pbc="F F F"
C        0.19940264       0.04376360      -0.07119514
H        1.60094248       1.62936288      -0.02194022
Cl      -1.50863007      -0.36041809       0.26772861
H        1.71611850      -1.18031889       1.71592081
C        0.50968232       1.51022268      -0.05438893
H        0.50609215      -0.42717449      -0.99515052
N        1.10674079      -0.68893609       0.99672401
O        1.28196315      -0.19475254       2.16142399
O        1.66816525      -1.79707594       0.70156244
N       -0.12731251       2.27317635       1.02867348
H        0.31476272       3.19228907       1.01503732
H        0.08064584       1.87016598       1.93332010
C        0.01864513       2.12888141      -1.35780471
H        0.46071977       1.64609906      -2.23441411
H       -1.06976701       2.08225018      -1.41092144
H        0.31716887       3.17699482      -1.35286569
