15
Properties=species:S:1:pos:R:3 Coordinates=T from=T ORCA-job=T run=T Energy:=T 106.4549833=T pbc="F F F"
C        0.84692976       0.05368030       0.03004603
H        1.74126027       1.88605262       0.69230212
Cl      -2.50472856      -1.08276019       0.27260227
Cl       2.05802008      -0.51331852      -1.17893328
C        0.80385345       1.57426044       0.20965360
H       -0.13014104      -0.37021527      -0.22663775
N        1.27061853      -0.60553738       1.31326218
O        2.08126803      -0.00450173       2.01708996
O        0.79832567      -1.71072116       1.54745739
C       -0.41789168       1.99709013       1.06791102
H       -1.33956830       1.65958664       0.59849608
H       -0.36331772       1.53834068       2.05701061
H       -0.44700606       3.08117154       1.19887950
C        0.79171628       2.20984395      -1.10739700
N        0.81840130       2.74995794      -2.15136273
