16
Properties=species:S:1:pos:R:3 Coordinates=T from=T ORCA-job=T run=T Energy:=T 18.5874970=T pbc="F F F"
C        0.24912758      -0.04074546       0.28786748
H        1.59218780       1.59772994       0.47685096
F       -1.12780001      -0.33266136       0.51046673
F        1.70633672      -0.42007506      -2.01681233
C        0.52300382       1.47228406       0.26434331
H        0.61354066      -0.43441074      -0.69107224
C        0.96799992      -0.72766829       1.37782563
N        1.53117867      -1.28369283       2.24888563
C       -0.32371737       2.26168792       1.26211793
H       -1.38753082       2.17934560       1.02618595
H       -0.18662076       1.91845542       2.29359228
H       -0.03914048       3.31693191       1.22552314
C        0.31841498       1.96978634      -1.16521553
H        0.93236722       1.31300141      -1.80201479
H       -0.72818532       1.86492059      -1.47083142
H        0.61960741       3.01879056      -1.23490273
