13
Properties=species:S:1:pos:R:3 Coordinates=T from=T ORCA-job=T run=T Energy:=T 82.7407838=T pbc="F F F"
C       -0.20094308      -0.02932554       0.08481291
H        3.34561056       0.65349847      -0.00003007
Br      -2.05174653      -0.62373698      -0.40155597
H        3.63578842       0.63677988      -0.02557103
C       -0.10225910       1.48049809       0.09285492
H        0.40753681      -0.39647903      -0.74668875
C        0.26804807      -0.66312638       1.30459079
N        0.71244780      -1.22236081       2.23781977
C       -0.09060307       2.13970662       1.38338894
N       -0.08820261       2.67095565       2.43624485
N        0.00540915       2.05902713      -1.15386137
H        0.13747596       3.05757936      -1.08591385
H       -0.84507236       1.87983355      -1.67305113
