12
Properties=species:S:1:pos:R:3 Coordinates=T from=T ORCA-job=T run=T Energy:=T 40.6067955=T pbc="F F F"
C        0.76094224       0.01710890       0.10828422
H        1.96746849       1.68413031       0.69838494
F       -1.54640021      -0.63298733      -0.71307294
F        1.84424246      -0.41378947      -0.72714690
C        0.97567973       1.50685935       0.25641597
H       -0.50083551      -0.39433308      -0.44381404
H        0.89303837       2.03981518      -0.69327276
C        0.92724651      -0.70253368       1.35187131
N        1.18753695      -1.29468666       2.33518621
N        0.01296749       2.16831576       1.16914277
O       -0.41967603       3.26714631       0.83034209
O       -0.24281048       1.60121442       2.22998913
