12
Properties=species:S:1:pos:R:3 Coordinates=T from=T ORCA-job=T run=T Energy:=T 122.7939146=T pbc="F F F"
C        0.93769400      -0.00726072       0.11506896
H        1.68355914       1.92026925       0.55661149
Br      -2.67374810      -0.05366541      -1.03832329
F        1.92290390      -0.28540600      -0.85617646
C        0.74118441       1.48855002       0.20249557
H        0.00243602      -0.45294543      -0.22391911
H       -0.04616719       1.68028587       0.93723954
C        1.35743043      -0.59565942       1.38804445
N        1.73819726      -1.09324969       2.38276442
N        0.36552028       1.95730414      -1.12794243
H        0.29772180       2.96639198      -1.12193097
H       -0.54068196       1.55277540      -1.35258218
