14
Properties=species:S:1:pos:R:3 Coordinates=T from=T ORCA-job=T run=T Energy:=T 60.8979366=T pbc="F F F"
C        0.33822617      -0.01113259      -0.04176134
H        1.64517777       1.68630089      -0.03228179
F       -1.02313844      -0.25686480       0.21230093
H        2.28943963      -0.40402558       0.69626511
C        0.55993595       1.50048906      -0.00792222
H        0.56044078      -0.42492968      -1.02329412
C        1.22849644      -0.68710246       0.97797078
N        1.02504492      -1.34805701       1.99149024
C       -0.07641423       2.09959989       1.24786690
H       -1.14251828       1.86045781       1.25749143
H        0.38531119       1.65809912       2.13594132
H        0.04889156       3.18515124       1.27729983
C       -0.00541383       2.02821354      -1.24380350
N       -0.41885963       2.41692057      -2.27310356
