12
Properties=species:S:1:pos:R:3 Coordinates=T from=T ORCA-job=T run=T Energy:=T 52.8158021=T pbc="F F F"
C        0.19207892      -0.08110210       0.19271862
H        1.16839496       1.75734300       0.70143959
F       -1.06702522      -0.52613130      -0.25876763
Cl       3.00896866       0.50170817      -1.74832812
C        0.20989354       1.43454672       0.27106611
H        0.95910853      -0.37851995      -0.52484455
H       -0.61182511       1.74253825       0.93301274
C        0.44997609      -0.71144476       1.49297174
N        0.58861494      -1.25432835       2.52504725
N        0.01063990       1.95807859      -1.08259472
H        0.83378843       1.68372638      -1.62044753
H        0.01250636       2.97062536      -1.01517349
