14
Properties=species:S:1:pos:R:3 Coordinates=T from=T ORCA-job=T run=T Energy:=T 141.2193377=T pbc="F F F"
C        0.89773398      -0.06493225       0.33903139
H        1.80576688       1.85262610       0.23970032
Cl      -3.38768585       0.11667917      -2.35043148
Cl       1.76383737      -0.77391343      -1.14703092
C        0.78027199       1.46887863       0.23281499
H       -0.08138152      -0.53336336       0.33673614
C        1.61229107      -0.51388109       1.52846308
N        2.20708365      -0.91801260       2.45825482
C        0.10242181       2.03764932       1.40424051
N       -0.37378501       2.57740031       2.33867775
C        0.12013920       1.93484355      -1.07958921
H        0.81167146       1.75026456      -1.90007612
H       -0.83039476       1.42588290      -1.28820959
H       -0.05178029       3.01379818      -1.03185168
