13
Properties=species:S:1:pos:R:3 Coordinates=T from=T ORCA-job=T run=T Energy:=T 72.5237743=T pbc="F F F"
C        0.05314849      -0.04132714       0.09123153
H        1.92967587       0.84509113       0.06808972
Cl      -1.77027980      -0.15275475       0.07661757
F        2.89188599       0.70070399      -0.13504677
C        0.51580171       1.36121915       0.06838910
H        0.36061520      -0.53011017      -0.82853230
C        0.56599040      -0.77570072       1.23565840
N        0.87300944      -1.48858687       2.11967546
C        0.18334244       2.16452515       1.20515888
N       -0.13564955       2.83641952       2.11882466
N        0.11775704       1.95345179      -1.20945625
O       -0.53777001       2.99602614      -1.18583502
O        0.45826278       1.35027278      -2.22687499
