13
Properties=species:S:1:pos:R:3 Coordinates=T from=T ORCA-job=T run=T Energy:=T 151.0527874=T pbc="F F F"
C        0.66494552      -0.10861407      -0.18568409
H        1.70650313       1.58273987       0.68555337
F       -1.19738702      -0.18270980       1.24920492
H        1.50654957      -0.34771275      -0.85815067
C        0.77803209       1.41628215       0.12411310
H       -0.28394539      -0.32545989      -0.67625397
C        0.82609995      -0.90373257       1.03697304
N        1.21828558      -1.51838081       1.96210739
N       -0.29152062       2.01302686       1.00231290
O       -1.31230191       2.43142964       0.46481330
O       -0.02200312       2.12598243       2.19167955
C        0.83893427       2.21160382      -1.09917091
N        0.91615795       2.86273512      -2.07666793
