15
Properties=species:S:1:pos:R:3 Coordinates=T from=T ORCA-job=T run=T Energy:=T 55.0643680=T pbc="F F F"
C        0.44699517      -0.38498073       0.46598208
H        1.64783437       1.30797549       0.13005319
Cl      -3.18569310       2.11266508      -1.14779686
Br       4.13535464       1.46558358      -1.09039919
C        0.56354614       1.11612854       0.17575737
H        0.74391869      -1.00426924      -0.38553691
C        0.87868063      -0.93290941       1.73995425
N        1.16350169      -1.47414620       2.74740366
C       -0.04271957       1.97904031       1.28301985
H       -1.13528056       1.98477805       1.21234007
H        0.26996914       1.65266462       2.27379235
H        0.31165262       3.00606166       1.15727244
N       -0.01845927       1.34181566      -1.14729981
H        0.26073905       2.26518649      -1.46979961
H       -1.05388963       1.35278608      -1.11527289
