14
Properties=species:S:1:pos:R:3 Coordinates=T from=T ORCA-job=T run=T Energy:=T 96.2206131=T pbc="F F F"
C        0.05570781      -0.03290919       0.20610594
H        1.55242427       1.41680311       0.31376862
F       -1.30772479      -0.15002808       0.56613219
F        2.27122703      -0.12357788      -0.71345688
C        0.47569137       1.43817032       0.15410090
H        0.19770381      -0.44744874      -0.78434690
C        0.84541093      -0.80185840       1.17285463
N        1.35876050      -1.44370455       2.01052588
C       -0.19529124       2.23910986       1.17022843
N       -0.72736425       2.88820479       1.99233970
C        0.23848289       1.99316116      -1.25304465
H        0.90734056       1.41807992      -1.89590194
H       -0.79990788       1.86394855      -1.57962793
H        0.49785899       3.05447914      -1.29387800
