14
Properties=species:S:1:pos:R:3 Coordinates=T from=T ORCA-job=T run=T Energy:=T 61.9107405=T pbc="F F F"
C        0.13063628      -0.13597933       0.07267876
H        1.60766484       1.33956178       0.03028391
Cl      -1.65383980      -0.36843460      -0.12533839
Cl       3.56387417       0.40333974      -0.36595141
C        0.50009862       1.35608055       0.06121253
H        0.62742543      -0.62348364      -0.76967480
C        0.51377025      -0.81534911       1.31508929
N        0.74698870      -1.39530007       2.31038831
C       -0.00361135       2.13761798       1.27035952
H       -1.09450981       2.14205877       1.30701217
H        0.38699483       1.70556567       2.19226589
H        0.34212097       3.17116445       1.20622687
C        0.02444610       1.95218181      -1.18749983
N       -0.35334924       2.43546599      -2.19062283
