15
Properties=species:S:1:pos:R:3 Coordinates=T from=T ORCA-job=T run=T Energy:=T 35.4148755=T pbc="F F F"
C        0.24775307      -0.05081648       0.24175462
H        1.65810510       1.50031703       0.41125467
F       -1.07407583      -0.34328804      -0.16086181
H        2.01687139      -0.09448935      -1.96987724
C        0.57105781       1.43286153       0.19495511
H        0.91268170      -0.42728706      -0.58429837
C        0.48897038      -0.75083722       1.50114747
N        0.56899821      -1.34638713       2.51049665
N       -0.13670735       2.18809109       1.26856057
O       -0.73204888       3.22982658       0.97096044
O        0.03630193       1.80460545       2.43376312
C        0.26986330       2.00374290      -1.17844063
H        0.68450807       1.28523975      -1.90272165
H       -0.80184648       2.13826000      -1.34292174
H        0.78681758       2.95813094      -1.29635120
