14
Properties=species:S:1:pos:R:3 Coordinates=T from=T ORCA-job=T run=T Energy:=T 51.9286321=T pbc="F F F"
C        0.19685645      -0.12702236       0.08679439
H        1.60224535       1.40683816       0.04086565
Br      -1.72799914      -0.51074948      -0.24371315
Cl       3.29317517       0.14232793      -0.57303365
C        0.49637594       1.38191768       0.05988685
H        0.77199595      -0.60191370      -0.70693079
C        0.54043742      -0.71232057       1.38504950
N        0.79024227      -1.18867210       2.43079205
C       -0.01132416       2.13580384       1.28139874
H       -1.09773448       2.08580971       1.35084355
H        0.43291243       1.68496123       2.16791234
H        0.30419434       3.18100203       1.23185427
C        0.02860516       1.96985377      -1.19387854
N       -0.30199271       2.45923385      -2.21124120
