12
Properties=species:S:1:pos:R:3 Coordinates=T from=T ORCA-job=T run=T Energy:=T 41.0468802=T pbc="F F F"
C        0.89401855      -0.03816076      -0.00876783
H        1.37873029       2.02595260       0.58607647
Br      -2.17373408      -0.26000279       0.32825116
Br       2.62235293      -0.39543653      -0.87332206
C        0.60671488       1.44352995       0.08896932
H        0.11564260      -0.49453902      -0.61095710
H       -0.37081760       1.56590142       0.55507460
C        0.91017110      -0.63364970       1.31737131
N        0.98992426      -1.14935835       2.36947915
N        0.44949795       2.04144025      -1.27206507
O        0.29814338       3.26136647      -1.28980932
O        0.44226575       1.30575645      -2.25301064
