12
Properties=species:S:1:pos:R:3 Coordinates=T from=T ORCA-job=T run=T Energy:=T 58.9314433=T pbc="F F F"
C        0.23986680      -0.05901239       0.04097792
H        1.62992526       1.46059705       0.11830569
Cl      -1.57476129      -0.37015749      -0.02189567
F        2.69800120       0.03082130      -0.11758833
C        0.53392252       1.43975496       0.03306360
H        0.67362606      -0.52940189      -0.83361529
H        0.03427662       1.89231631       0.90129032
C        0.74488653      -0.71098811       1.24159726
N        0.97444833      -1.25119286       2.25872385
N        0.11477327       2.03705032      -1.22735386
H        0.60067882       2.91839520      -1.33773649
H       -0.87863411       2.23825760      -1.18641902
