16
Properties=species:S:1:pos:R:3 Coordinates=T from=T ORCA-job=T run=T Energy:=T 16.1103625=T pbc="F F F"
C        0.21917494      -0.06777244       0.27265565
H        1.58968294       1.51940972       0.32992308
F       -1.15731359      -0.34270260       0.11539971
Cl       2.83387131      -0.38853116      -2.11217636
C        0.50666642       1.43009817       0.20227600
H        0.75021754      -0.55145656      -0.55534385
C        0.60654005      -0.69052568       1.55464171
N        0.83879045      -1.22120553       2.57647048
C       -0.22199318       2.22495043       1.27904208
H       -1.30444228       2.14419188       1.16001001
H        0.04879669       1.89274718       2.28421883
H        0.05359629       3.28001495       1.19535478
C        0.16268660       1.95722971      -1.19302138
H        0.74051272       1.38985931      -1.92619310
H       -0.90805924       1.85417618      -1.41192496
H        0.43876235       3.01613644      -1.25661268
