13
Properties=species:S:1:pos:R:3 Coordinates=T from=T ORCA-job=T run=T Energy:=T 179.5080437=T pbc="F F F"
C        0.97341328      -0.02926019       0.03694182
H        1.78996936       1.98875802       0.07895855
Br      -2.07310331      -0.08719782      -0.07219018
Cl       2.65332403      -0.39289227      -0.53990150
C        0.80045228       1.50788752       0.09538410
H        0.26239239      -0.43707386      -0.67523420
C        0.75627267      -0.70607241       1.30847351
N        0.65586547      -1.35906894       2.27944820
C        0.07419716       2.06666287       1.23678868
N       -0.40583267       2.61921251       2.15931316
N        0.12754996       1.92304932      -1.20579313
O       -0.55172192       2.94300942      -1.17881935
O        0.39695130       1.26235584      -2.20247966
