14
Properties=species:S:1:pos:R:3 Coordinates=T from=T ORCA-job=T run=T Energy:=T 63.5074728=T pbc="F F F"
C        0.06419919      -0.10745382       0.09230301
H        1.88421946       1.10030953      -0.05597684
Br      -1.90448902      -0.33012746      -0.00375444
F        2.84444208       0.71448560      -0.02537900
C        0.48128053       1.32806874       0.01120996
H        0.40992580      -0.61468178      -0.81100409
C        0.57296735      -0.84314294       1.33354831
H        1.66051912      -0.73305350       1.31977955
H        0.13806766      -0.46608165       2.26534978
H        0.27381421      -1.89127365       1.25285299
C        0.21239269       2.10852718       1.17919751
N       -0.03709433       2.71257238       2.15985076
C        0.19493452       2.00811468      -1.21470720
N       -0.04008926       2.56803667      -2.22443031
