15
Properties=species:S:1:pos:R:3 Coordinates=T from=T ORCA-job=T run=T Energy:=T 109.1597291=T pbc="F F F"
C        0.18004740       0.03061978       0.15313274
H        1.66581271       1.55088520       0.32585168
F       -1.21785167      -0.01053321      -0.03704261
Cl       3.27003800      -0.67039295      -1.22629197
C        0.58327027       1.49954053       0.19461572
H        0.67354742      -0.39305849      -0.72118009
C        0.51267838      -0.77119764       1.38264065
H        1.58929831      -0.82664341       1.54263161
H       -0.01198390      -0.37308984       2.25216943
H        0.15626576      -1.78520920       1.20144580
C       -0.09543340       2.18590040       1.31599634
N       -0.66091430       2.76971312       2.16602317
N        0.29161526       2.11404279      -1.10698391
H        0.08346300       3.09919567      -0.98379652
H       -0.55586324       1.66502724      -1.43229205
