16
Properties=species:S:1:pos:R:3 Coordinates=T from=T ORCA-job=T run=T Energy:=T 53.1820149=T pbc="F F F"
C        0.35205395      -0.16195940      -0.02161544
H        1.18558767       1.42503305      -1.15318331
Cl      -0.56140166      -0.79100133      -1.47482514
H        4.10646484       1.06267965       0.63262430
C        0.62970322       1.34492584      -0.20854169
H        1.31809861      -0.66253776      -0.05028678
C       -0.37722214      -0.49883057       1.26668596
H        0.18364005      -0.11389218       2.12306283
H       -1.37903183      -0.06568350       1.29763986
H       -0.48042499      -1.58388091       1.36262372
N        1.38600640       1.83029108       0.93453179
H        1.40046906       2.83963069       0.84231947
H        2.37736158       1.53187734       0.85586611
N       -0.55201320       2.18687639      -0.30942585
H       -0.81900515       2.44771036       0.62951890
H       -1.30144639       1.67239124      -0.74545474
