14
Properties=species:S:1:pos:R:3 Coordinates=T from=T ORCA-job=T run=T Energy:=T 21.7588879=T pbc="F F F"
C        0.92810207       0.00369429       0.11642235
H        1.31238337       2.08456060       0.62982198
F       -1.63068285       0.16494069      -1.02250895
Br       2.75235571      -0.24709954      -0.63607993
C        0.54617713       1.47854618       0.13524305
H        0.24316602      -0.41864839      -0.61334717
H       -0.40174689       1.51163840       0.69858400
C        0.88299974      -0.69805058       1.45439315
H        1.29587406      -1.71224889       1.39543180
H        1.46456037      -0.15451071       2.20829289
H       -0.16151378      -0.77362604       1.75857853
N        0.35863338       1.90013731      -1.25662714
H        0.19734458       2.90050108      -1.30144986
H       -0.50575291       1.37083560      -1.47747470
