16
Properties=species:S:1:pos:R:3 Coordinates=T from=T ORCA-job=T run=T Energy:=T 91.4171450=T pbc="F F F"
C        0.53853232      -0.01016963       0.09293582
H        1.76280196       1.65095158       0.19874199
Cl      -2.37084167      -0.23596720       0.39160374
F        2.32262722      -0.15003828      -0.61499922
C        0.69026979       1.49207581       0.07188500
H        0.33260947      -0.54931741      -0.85038097
C        0.76985716      -0.80870632       1.33191162
H        1.84260048      -0.85986788       1.53879948
H        0.24723871      -0.36770217       2.18549530
H        0.38692011      -1.82443794       1.19970687
C        0.03918802       2.17060302       1.19496247
N       -0.47697947       2.71715579       2.10063184
C        0.23879684       2.06476233      -1.26951269
H        0.82111319       1.59285939      -2.06025759
H       -0.81911880       1.84558966      -1.43248939
H        0.40056468       3.14556925      -1.31467426
