14
Properties=species:S:1:pos:R:3 Coordinates=T from=T ORCA-job=T run=T Energy:=T 8.7095974=T pbc="F F F"
C        0.86636897      -0.14317569      -0.13111577
H        1.34235624       1.85576202       0.56740670
Br      -2.56262594       0.46232308       1.34671697
H        1.81230343      -0.31120611      -0.64654605
C        0.59241150       1.34042216      -0.04141824
H        0.09048491      -0.60883736      -0.73971899
H       -0.40814495       1.52742319       0.36135409
C        0.91028380      -0.80048748       1.24721705
H        1.70848347      -0.36740148       1.86275521
H       -0.05451883      -0.66488602       1.74881231
H        1.12529911      -1.87075026       1.13946170
N        0.62621050       2.03841737      -1.35751177
O        0.38507823       3.25211755      -1.33597276
O        0.88029956       1.39558905      -2.38163044
