16
Properties=species:S:1:pos:R:3 Coordinates=T from=T ORCA-job=T run=T Energy:=T 55.2320113=T pbc="F F F"
C        0.07592381      -0.12813837       0.06276202
H        1.65277835       1.19442457       0.01554352
Br      -1.90687749      -0.37657559      -0.04500513
F        2.96391627       0.57631733       0.32845521
C        0.48919336       1.33244315       0.01588970
H        0.42419512      -0.60616037      -0.85514027
C        0.62622719      -0.85299626       1.27497816
H        1.69810473      -0.62657745       1.24193247
H        0.17243538      -0.48996240       2.19876946
H        0.43128331      -1.92436193       1.18664191
C        0.11810158       2.14319886       1.25205429
H       -0.94728330       2.06504002       1.48874003
H        0.71554828       1.77136298       2.08738787
H        0.36056112       3.20165550       1.11757029
C        0.05884676       1.94062086      -1.22703225
N       -0.28349447       2.42539910      -2.24384727
