16
Properties=species:S:1:pos:R:3 Coordinates=T from=T ORCA-job=T run=T Energy:=T 43.9732459=T pbc="F F F"
C        0.16705207      -0.10544404       0.27121158
H        1.75317983       1.31987834       0.17477618
Cl      -3.91406507       0.42965919      -0.46008502
Cl       4.12688325       0.72597357      -0.27646369
C        0.64997837       1.32671089       0.09592186
H        0.15405281      -0.59394277      -0.70291360
C        0.71208741      -0.98900774       1.36514960
H        1.80193023      -0.93284347       1.33655606
H        0.35480694      -0.68753337       2.34394366
H        0.38333493      -2.01785146       1.17743835
N        0.16174462       2.20028572       1.25347240
O        0.03717521       3.40550747       1.02960454
O       -0.00084234       1.69119012       2.36402856
N        0.25428547       1.82674186      -1.18569992
H        0.48041218       2.80748305      -1.26334344
H       -0.74241592       1.70287264      -1.32381712
