14
Properties=species:S:1:pos:R:3 Coordinates=T from=T ORCA-job=T run=T Energy:=T 23.3781605=T pbc="F F F"
C        0.64877864      -0.03848558       0.32105182
H        1.88461298       1.67655779       1.09511595
F       -0.79664866       1.31838672      -2.24079113
H        1.16636792      -0.22529022      -0.61906578
C        0.89114339       1.38538960       0.72380363
H       -0.41485591      -0.16479969       0.14887561
H       -0.11823184       1.15263715      -1.49190738
C        1.15968695      -1.04725935       1.35343316
H        2.24669554      -0.99586927       1.41949294
H        0.77378919      -0.92417464       2.36407238
H        0.92017796      -2.06102619       1.02265401
N       -0.11900526       2.09588685       1.48474759
O        0.20751270       3.18640008       1.97816051
O       -1.25312361       1.60654676       1.59273669
