17
Properties=species:S:1:pos:R:3 Coordinates=T from=T ORCA-job=T run=T Energy:=T 35.0807206=T pbc="F F F"
C       -0.01528576      -0.04724997       0.08182976
H        1.53770381       1.35391385      -0.02255488
F       -1.43008565      -0.06314682       0.07216568
Cl       3.96839291       0.04792855       0.15106348
C        0.44697153       1.39672815       0.03866996
H        0.28126534      -0.49492049      -0.86480666
C        0.50079780      -0.88595449       1.22424861
H        1.58103011      -0.74954176       1.32530737
H       -0.01013930      -0.65582554       2.15949769
H        0.29969223      -1.93946633       1.00777327
C        0.06623888       2.17435104       1.30093869
H       -1.01517312       2.17828967       1.45762575
H        0.54250155       1.73002260       2.17735237
H        0.41045706       3.20796696       1.22386594
N       -0.04388445       1.98710825      -1.21553479
H        0.24232294       2.95945360      -1.25237618
H       -1.05758589       1.95515274      -1.19972607
