14
Properties=species:S:1:pos:R:3 Coordinates=T from=T ORCA-job=T run=T Energy:=T 41.4900699=T pbc="F F F"
C        0.74730889      -0.04196421       0.15497565
H        2.09193572       1.66759424       0.57815979
Br      -2.65942659      -0.47447016      -1.16877409
H        1.31787643      -0.40401236      -0.70675397
C        1.05918072       1.43897822       0.28814236
H       -0.30194699      -0.16009266      -0.14742503
H        0.85094310       1.96074108      -0.64745827
C        1.03505718      -0.91514281       1.37425774
H        2.06298793      -0.81143398       1.73834305
H        0.33445375      -0.69673723       2.18014300
H        0.89899901      -1.97084142       1.10852165
N        0.23207030       2.18479108       1.28215845
O        0.38359299       3.41476469       1.26850233
O       -0.58321245       1.59349554       1.99353735
