16
Properties=species:S:1:pos:R:3 Coordinates=T from=T ORCA-job=T run=T Energy:=T 78.7383285=T pbc="F F F"
C        0.63857551      -0.02165070       0.06116431
H        2.02330862       1.63606111       0.04282552
Cl      -3.19328454      -1.42175009      -0.39507281
H        1.31083993      -0.44828583      -0.69352457
C        0.93133741       1.49729097       0.03727652
H       -0.38198725      -0.22739573      -0.29383727
C        0.87099311      -0.70189712       1.40022834
H        1.88370959      -0.52471042       1.77752272
H        0.15835990      -0.35806005       2.15615880
H        0.75147642      -1.77936167       1.26498959
C        0.43148443       2.20168399       1.21785816
N        0.03818681       2.77832507       2.16576112
C        0.37778607       2.15663194      -1.23279139
H        0.83142230       1.72176285      -2.12893122
H       -0.70474259       2.00913559      -1.29292231
H        0.57555429       3.23145006      -1.23789548
