18
Properties=species:S:1:pos:R:3 Coordinates=T from=T ORCA-job=T run=T Energy:=T 14.8389874=T pbc="F F F"
C        1.00070254       0.03621012       0.22132889
H        1.86637738       1.93595643       0.46480604
Br      -3.68204718      -0.01697761       0.65124052
F        1.83777073      -0.15168321      -2.39516121
C        0.86305348       1.54579483       0.23693616
H        1.37051000      -0.34718131      -0.75546059
C        0.95046632      -0.77581716       1.49213310
H        1.94020032      -0.83789712       1.96266834
H        0.26242376      -0.29641121       2.19212499
H        0.58431717      -1.78185754       1.28251010
C       -0.13878055       2.04222448       1.26889291
H       -1.11605823       1.55618224       1.16452991
H        0.21381454       1.88269336       2.28759265
H       -0.30894714       3.11537584       1.14784121
C        0.45493470       1.95244614      -1.16990018
H        1.07670430       1.36453279      -1.86265869
H       -0.57770664       1.63654051      -1.34498320
H        0.52781452       3.03391842      -1.32656094
