14
Properties=species:S:1:pos:R:3 Coordinates=T from=T ORCA-job=T run=T Energy:=T 61.8682969=T pbc="F F F"
C        0.07590661      -0.04612620       0.07616372
H        2.31783279       0.64227230      -0.09315535
Br      -1.86354129      -0.37712623      -0.06630960
H        2.99023396       0.42885491      -0.13362299
C        0.29282112       1.42847911       0.05095533
H        0.53006580      -0.45918834      -0.83056678
C        0.57020273      -0.76826139       1.31723140
H        1.66710309      -0.66821241       1.33063067
H        0.11058299      -0.39133308       2.23595292
H        0.26308051      -1.81384725       1.21425627
C        0.04397314       2.16929335       1.26159469
N       -0.10700231       2.72868105       2.28811355
C        0.02121060       2.10246818      -1.19755463
N       -0.09620975       2.61961601      -2.25044919
