16
Properties=species:S:1:pos:R:3 Coordinates=T from=T ORCA-job=T run=T Energy:=T 47.6470277=T pbc="F F F"
C        0.07682631      -0.11190057       0.05938112
H        1.62838451       1.20062588      -0.01157826
F       -1.33294919      -0.18090360      -0.01422718
F        2.92452575       0.02844186       0.31644098
C        0.52892253       1.33525321       0.06509410
H        0.44260996      -0.56837313      -0.86363474
N        0.58609473      -0.73911868       1.23606714
H        1.61983836      -0.59322782       1.08276192
H        0.38640927      -1.73042244       1.15391198
C        0.09594776       2.14084083       1.26666986
H       -0.98945054       2.19267328       1.34314665
H        0.49378517       1.68133785       2.17092995
H        0.47901894       3.15840759       1.17223670
N        0.03415049       1.95287728      -1.21177654
O       -0.68384386       2.95440558      -1.16192717
O        0.37180980       1.40782287      -2.26364651
