13
Properties=species:S:1:pos:R:3 Coordinates=T from=T ORCA-job=T run=T Energy:=T 14.2640532=T pbc="F F F"
C        0.33477662      -0.37413974      -0.01406041
H        1.87899727       1.14014156      -0.03188838
Br      -3.20122325       1.19102251      -0.72375173
F        3.73319112       0.70205843       1.22878684
C        0.77460819       1.07499831      -0.00442493
H       -0.70780528      -0.44000037      -0.36086112
H        0.45909553       1.46456304       0.96821162
N        0.92065002      -1.38470249       0.56830619
H        2.79392436       0.25431197       1.12203436
H        0.29694072      -2.21225569       0.53409233
N        0.16436127       1.82948751      -1.10433023
H        0.26892070       2.81636247      -0.87894357
H       -0.84117727       1.62152249      -1.14312098
