15
Properties=species:S:1:pos:R:3 Coordinates=T from=T ORCA-job=T run=T Energy:=T 59.1546371=T pbc="F F F"
C        1.26278352       0.08837119       0.21873723
H        1.82023018       2.12495454      -0.17903917
F       -1.52949319      -0.39448078      -0.98532940
H        2.22826450       0.06476999       0.73944996
C        0.89017377       1.57614964       0.01191686
H        1.39942686      -0.36752533      -0.76835213
N        0.24754879      -0.62525977       1.00137816
H        0.59307383      -1.57092924       1.15220256
H       -0.58533474      -0.68559398       0.37946264
N        0.47849510       2.16525059       1.39592025
O       -0.51747892       2.88939756       1.48844968
O        1.25742260       1.96065646       2.33023652
N       -0.07324835       1.83447381      -0.99373021
H       -0.62680268       2.62178102      -0.68249953
H       -0.71564129       1.01290429      -1.11594343
