15
Properties=species:S:1:pos:R:3 Coordinates=T from=T ORCA-job=T run=T Energy:=T 50.3166287=T pbc="F F F"
C        0.50689440      -0.05846667      -0.29838175
H        1.85413942       1.43990072       0.17554509
Br      -3.11570580      -0.65673837       1.35675626
F        2.91607456       0.24523434       1.37167373
C        0.77318082       1.43904001      -0.07013555
H        0.17613250      -0.45105593      -1.28655347
N        0.72709976      -0.85720698       0.81301748
H        1.69524605      -0.46293402       1.17835102
H        0.81215374      -1.84152377       0.53452682
C        0.00778854       1.99640789       1.15447410
H       -1.01396291       1.61499924       1.20398873
H        0.57524275       1.68616875       2.03055343
H       -0.04379865       3.08225717       1.12828805
C        0.47356755       2.14222272      -1.30732854
N        0.23999728       2.70814488      -2.31237539
