13
Properties=species:S:1:pos:R:3 Coordinates=T from=T ORCA-job=T run=T Energy:=T 24.6647232=T pbc="F F F"
C        0.86267628       0.14529077      -0.14731284
H        0.14027990       0.77362350       1.68889319
F       -0.46475145      -0.83572705       2.29640203
H        1.40797100       0.50080050      -1.03106557
C        0.71576021       1.25647275       0.87795928
H       -0.14809220      -0.14206409      -0.46256786
H        1.66411327       1.67242566       1.20406585
N        1.52022678      -0.98380455       0.51352968
H        1.45361787      -1.75812027      -0.13915762
H        0.86409876      -1.17792889       1.30202398
N       -0.05635752       2.40168781       0.33123296
O       -1.09994135       2.15472005      -0.28340805
O        0.36006845       3.54867381       0.54241497
