14
Properties=species:S:1:pos:R:3 Coordinates=T from=T ORCA-job=T run=T Energy:=T 155.1550199=T pbc="F F F"
C        1.01730122       0.04806486      -0.04878185
H        1.68891091       2.00832367       0.33325616
F       -1.38526528      -0.28367103       1.50755846
Cl       2.57022923      -0.17265845      -0.97756786
C        0.74951476       1.56745088      -0.01798513
H        0.25219011      -0.44928330      -0.65893877
N        1.18382189      -0.45012169       1.28694704
H        1.50621367      -1.41005251       1.22123913
H        0.18073649      -0.47266454       1.62298719
N       -0.34129386       2.01687298       0.82933323
H        0.07826042       2.23688168       1.72544484
H       -0.95122799       1.19141196       1.02723252
C        0.51825694       2.02761172      -1.40398378
N        0.30250148       2.39641379      -2.49994119
