13
Properties=species:S:1:pos:R:3 Coordinates=T from=T ORCA-job=T run=T Energy:=T 27.5960206=T pbc="F F F"
C        0.81907884      -0.19185273      -0.33527600
H        1.83438666       1.65165789      -0.60182150
Cl      -3.35110463       0.96619246      -0.18427746
Cl       3.67813629       0.31434643       1.20761657
C        0.86117949       1.32267749      -0.22734005
H        0.36147691      -0.74624718       0.48464945
H        0.83397182       1.58580562       0.83709244
N        0.87271532      -0.96225173      -1.55069649
O        1.34075726      -0.45463888      -2.57504767
O        0.43879457      -2.11864383      -1.48615172
N       -0.22327692       1.95565797      -0.94999297
H       -0.06393756       2.96108362      -0.96006505
H       -1.12602805       1.75580285      -0.50878955
