11
Properties=species:S:1:pos:R:3 Coordinates=T from=T ORCA-job=T run=T Energy:=T 14.7722682=T pbc="F F F"
C        1.05809138      -0.07537764       0.02355423
H        1.50536362       1.89808757      -0.69477627
Cl      -2.42428635       0.49021128      -0.15800190
Cl       2.74346399      -0.45236492       0.53717267
C        0.79655789       1.40306974      -0.03232956
H        0.39305982      -0.61147042       0.69623218
H        0.90321930       1.80480259       0.97759957
H       -0.23556582       1.53983104      -0.36780924
N        0.92205027      -0.75361699      -1.31375677
O        1.20378106      -0.09676697      -2.30942267
O        0.61955482      -1.94042528      -1.30089226
