14
Properties=species:S:1:pos:R:3 Coordinates=T from=T ORCA-job=T run=T Energy:=T 153.7071478=T pbc="F F F"
C        0.63280741      -0.03825420       0.08189453
H        1.50005390       1.77916684      -0.64348717
F       -1.30496207      -0.20241237      -1.23924622
F        1.72645557      -0.24314552       0.94513885
C        0.55541443       1.45260746      -0.20629436
H       -0.24641208      -0.51370840       0.48882491
N        1.02817965      -0.84147757      -1.10538390
O        1.47726661      -0.26955990      -2.09414500
O        0.96348987      -2.05340865      -0.93794399
N        0.58416795       2.07199458       1.19366973
O        1.61267924       2.64456961       1.51654591
O       -0.41009790       1.89511370       1.88522735
C       -0.60157551       2.05100941      -0.90532744
N       -1.37020707       2.75181500      -1.46199318
