16
Properties=species:S:1:pos:R:3 Coordinates=T from=T ORCA-job=T run=T Energy:=T 50.2267129=T pbc="F F F"
C        0.12757071      -0.02943088      -0.21184742
H        1.51248762       1.52930280      -0.36952502
Br      -1.82373188      -0.33087045      -0.09706899
Cl       3.08016596      -0.06348727       1.17987898
C        0.44448026       1.45954061      -0.18544107
H        0.61120384      -0.55417693       0.61156739
N        0.60081260      -0.74983785      -1.44785907
O        1.24390256      -0.11824360      -2.27788943
O        0.34691140      -1.94977121      -1.50475317
C        0.20164358       2.00432974       1.22027318
H       -0.85435668       1.95217465       1.49585577
H        0.81327052       1.45891995       1.93706002
H        0.51528545       3.04982592       1.23655264
N       -0.24230057       2.20502048      -1.22515486
H        0.09670541       3.16455820      -1.23043161
H       -1.24552079       2.18530586      -1.09714735
