13
Properties=species:S:1:pos:R:3 Coordinates=T from=T ORCA-job=T run=T Energy:=T 30.1780009=T pbc="F F F"
C        0.33036078      -0.02635881      -0.20445138
H        1.71042839       1.58596103      -0.38157557
F       -1.00115270      -0.25703574       0.18199219
H        2.08961113       0.14327291       2.19306969
C        0.63655078       1.44167747      -0.16918699
H        0.98160880      -0.56800457       0.49307191
H        0.05642496       1.94294730      -0.94764563
N        0.39979173      -0.69496601      -1.53216756
O        0.36958004      -0.00273980      -2.55536757
O        0.35838683      -1.92930588      -1.51823067
N        0.25394894       1.92857811       1.17180260
H        0.67648834       2.84829853       1.24593804
H        0.80250199       1.31878545       1.81143093
