12
Properties=species:S:1:pos:R:3 Coordinates=T from=T ORCA-job=T run=T Energy:=T 164.9169644=T pbc="F F F"
C        1.28714567      -0.13794469      -0.04476907
H        1.10364240       1.79282013       0.86219993
Cl      -2.85456562       1.39665920       0.33991655
Cl       3.10627269      -0.13224794      -0.21122188
C        0.72765732       1.27228424      -0.01993830
H       -0.36986288       1.24273428       0.04147747
H        1.03944808       1.80850325      -0.91606825
N        0.79593669      -0.88764574      -1.27437605
O        1.00227713      -0.33662059      -2.35129304
O        0.27942622      -1.98341620      -1.10174280
C        1.00647962      -0.89007275       1.17267489
N        0.91755268      -1.40443318       2.22867055
