18
Properties=species:S:1:pos:R:3 Coordinates=T from=T ORCA-job=T run=T Energy:=T 52.4948097=T pbc="F F F"
C        1.04929891      -0.05742870      -0.06977425
H        1.80188474       1.83304432      -0.58103431
Cl      -3.89811597       0.19386399      -1.70528769
F        3.13048941       1.40512204       2.17301580
C        0.85222988       1.44664294      -0.17735899
N        0.99880697      -0.83916314      -1.28773866
O        1.64029941      -0.39066640      -2.25191019
O        0.26335870      -1.84018492      -1.31675173
C        0.66933658      -0.79150641       1.11115775
N        0.36821392      -1.37994189       2.08736416
C        0.61338664       2.02145147       1.21747655
H       -0.34057624       1.65823099       1.62679455
H        1.49834324       1.78315843       1.86845419
H        0.54472414       3.11121311       1.11839855
C       -0.34366356       1.75619492      -1.08743712
H       -0.20209137       1.42978477      -2.12309639
H       -1.29031237       1.33202113      -0.74554002
H       -0.50121303       2.83930337      -1.10861222
