14
Properties=species:S:1:pos:R:3 Coordinates=T from=T ORCA-job=T run=T Energy:=T 45.1227495=T pbc="F F F"
C        0.14606589       0.03129228       0.02939179
H        1.91128375       1.09399511       0.02745002
Br      -1.87256697       0.26319628       0.03423839
F        3.18788307      -0.02204626       0.52293134
C        0.82995692       1.36407455      -0.02870139
H        0.55753421       1.92359534       0.87007112
H        0.53606286       1.91148942      -0.92684157
N        0.36109225      -0.74200146      -1.26767629
O        0.52096478      -0.09711958      -2.29960608
O        0.29045217      -1.96636258      -1.22263445
C        0.58716839      -0.78662205       1.20610457
H        1.69846092      -0.78885985       1.10917502
H        0.31421539      -0.24845425       2.11737625
H        0.12249637      -1.77503695       1.19248126
