16
Properties=species:S:1:pos:R:3 Coordinates=T from=T ORCA-job=T run=T Energy:=T 54.3484958=T pbc="F F F"
C        0.14494354      -0.02544195      -0.11744094
H        1.64584723       1.44455339      -0.37902497
F       -1.23991631      -0.12702783      -0.31181445
Br       4.06186125      -0.02656190       1.32059521
C        0.57704247       1.42973149      -0.17156838
H        0.43578518       1.83534669       0.83736468
N        0.70402874      -0.81729070      -1.29297542
O        1.27804868      -0.22020019      -2.19797422
O        0.46904180      -2.02554400      -1.29542805
C        0.52529553      -0.72705559       1.14759104
H        0.17383007      -1.75638449       1.10799999
H        1.61711833      -0.70097574       1.27370672
H        0.03761028      -0.19147968       1.96929100
N       -0.16107025       2.20488955      -1.16885333
H       -0.33343957       3.12765618      -0.78280563
H       -1.05980696       1.74346476      -1.27432324
