15
Properties=species:S:1:pos:R:3 Coordinates=T from=T ORCA-job=T run=T Energy:=T 51.2486704=T pbc="F F F"
C        0.23557544       0.05003384       0.22332807
H        1.82405735       1.49781441       0.33027199
F       -1.08492394      -0.01162216      -0.16772692
H        1.42283602      -1.11537821      -1.85575924
C        0.73380745       1.45659681       0.19418000
H        0.48166210       1.89036535      -0.77407208
N        0.95158835      -0.65296087      -1.03073889
O        1.25234979       0.02369826      -2.07926952
O        1.15177500      -1.91689174      -1.06020807
C        0.50108437      -0.75378840       1.43845137
H        1.56389614      -0.83227839       1.66817547
H       -0.00943070      -0.27775017       2.27728378
H        0.09299340      -1.75361132       1.30946321
C        0.08367799       2.23599539       1.24411128
N       -0.44011875       2.86256722       2.08854956
