19
Properties=species:S:1:pos:R:3 Coordinates=T from=T ORCA-job=T run=T Energy:=T 83.9632699=T pbc="F F F"
C       -0.03044670       0.03141951      -0.03296739
H        1.51799491       1.36880978      -0.49538882
F       -1.44183740       0.04752106      -0.03645355
F        2.87472763       0.25105167       1.82719512
C        0.50315496       1.46487529      -0.10766830
N        0.29375904      -0.71829784      -1.33643904
O        1.08295253      -0.20589872      -2.13294327
O       -0.28545341      -1.78590397      -1.52906850
C        0.46162351      -0.77945371       1.11522471
H        1.53599854      -0.53699270       1.32153227
H       -0.10794357      -0.46780033       1.99460166
H        0.29557909      -1.83569461       0.90987593
C        0.55894066       2.11148838       1.27909874
H       -0.37456896       1.97131750       1.83192309
H        1.41239267       1.64664309       1.79790930
H        0.69736669       3.18844568       1.15476505
N       -0.28604282       2.29595286      -1.01533193
H       -1.22166612       1.90405596      -0.95522337
H        0.03270874       2.10485110      -1.95732173
