15
Properties=species:S:1:pos:R:3 Coordinates=T from=T ORCA-job=T run=T Energy:=T 188.5289938=T pbc="F F F"
C        0.11906620      -0.09285397      -0.05766475
H        1.64315649       1.37916073      -0.22437179
F       -1.23670935      -0.21690709      -0.35787082
Cl       3.62389232       0.29716953       0.80699331
C        0.55303234       1.35939863      -0.13589576
H        0.29356330       1.82778964       0.81519926
N        0.77269593      -0.82077054      -1.22112336
O        0.98318073      -0.13247007      -2.21433336
O        0.94600869      -2.03201863      -1.13291253
C        0.40557157      -0.78338654       1.24313289
H        0.07092789      -1.81256607       1.15964257
H        1.47260947      -0.74965018       1.47615590
H       -0.16505247      -0.28232180       2.02670860
C       -0.11440026       2.09430164      -1.20652285
N       -0.67434286       2.70905472      -2.03403731
