14
Properties=species:S:1:pos:R:3 Coordinates=T from=T ORCA-job=T run=T Energy:=T 205.7919022=T pbc="F F F"
C        1.12664395      -0.02935966       0.17979217
H        1.12049488       1.92112127      -0.77843662
Br      -2.81473971      -0.62619106       0.31340685
F        2.44228740      -0.05404309       0.62798029
C        0.60223073       1.38855361       0.02171182
H       -0.46018227       1.27875032      -0.24008750
N        1.35404595      -0.65781071      -1.24129809
O        1.66683250       0.08658784      -2.16665624
O        1.36243542      -1.88451048      -1.28196934
N        0.30055048      -0.78339113       0.98218279
H        0.59179431      -1.74937364       1.01103532
H       -0.66601413      -0.72634376       0.63544698
C        0.76510840       2.12801542       1.27605053
N        0.92180210       2.79382506       2.23154103
