13
Properties=species:S:1:pos:R:3 Coordinates=T from=T ORCA-job=T run=T Energy:=T 37.9466382=T pbc="F F F"
C        0.13716154       0.05480527       0.05621661
H        1.82519538       1.26804448      -0.09871798
F       -1.26655098       0.14316143      -0.02949240
F        2.92681347      -0.40156287       0.68532013
C        0.74629660       1.42625351      -0.03015704
H        0.52521888       1.92674334       0.91577143
H        0.33471153       1.99298397      -0.86971351
N        0.42095658      -0.72859024      -1.28387810
O        0.65745693      -0.08858305      -2.30253386
O        0.30441725      -1.95080113      -1.22865011
N        0.54006713      -0.66843543       1.14772526
H        1.67457872      -0.62063621       1.05166689
H        0.21434697      -1.62430305       1.04860268
