16
Properties=species:S:1:pos:R:3 Coordinates=T from=T ORCA-job=T run=T Energy:=T 71.3175041=T pbc="F F F"
C        0.52153872      -0.12458311      -0.07974362
H        1.76521530       1.53319594      -0.18921769
Br      -3.09424206       0.21440219       0.36875848
F        3.03878789      -0.20256531       1.70652210
C        0.69331797       1.37091893      -0.10975470
H        0.24183504       1.77617482      -1.00801702
N        0.36439279      -0.80941318      -1.39887452
O        0.26016680      -0.12205434      -2.42172249
O        0.32267067      -2.04617924      -1.40416579
N        0.85805861      -0.85248240       0.98913676
H        1.96891895      -0.56064577       1.30973039
H        0.73116243      -1.84975665       0.82335526
C        0.14389467       2.05699457       1.13584909
H       -0.94484162       1.98349526       1.17665926
H        0.60100846       1.61212053       2.01614356
H        0.41135538       3.11438775       1.10809093
