18
Properties=species:S:1:pos:R:3 Coordinates=T from=T ORCA-job=T run=T Energy:=T 170.8694038=T pbc="F F F"
C        0.03091170      -0.13437443      -0.11984578
H        1.42924055       1.34900643      -0.74679664
Cl      -1.68733997      -0.29642251      -0.73106622
F        2.39848883      -0.09034524       1.75508693
C        0.49156817       1.35990458      -0.20726674
N        0.79883260      -0.95781712      -1.26527345
O        1.06571688      -0.36998241      -2.30408517
O        0.92643657      -2.16035274      -1.06587740
N        0.14382750      -0.73356386       1.10047563
H        1.19646006      -0.50612699       1.49053228
H       -0.02545462      -1.73221110       1.02612717
C        0.60320125       2.07520630       1.13018388
H       -0.31606063       1.97816633       1.71424272
H        1.43979679       1.58685656       1.64780767
H        0.78280866       3.13745817       0.93832049
N       -0.39236484       2.20272966      -1.12093706
O       -1.31306997       2.83653398      -0.61530304
O       -0.15863953       2.13041440      -2.32377528
