12
Properties=species:S:1:pos:R:3 Coordinates=T from=T ORCA-job=T run=T Energy:=T 30.3042158=T pbc="F F F"
C        0.25351713      -0.08883327      -0.24645202
H        1.77214103       1.37684448      -0.67802899
Cl      -1.49723616      -0.16827612       0.27278847
Cl       3.28449762      -0.07588582       1.67592755
C        0.75230322       1.35478770      -0.28169984
H        0.87435644      -0.57053795       0.51440431
H        0.72590453       1.77928796       0.71265562
C        0.39369175      -0.83526990      -1.49758098
N        0.46619306      -1.50707503      -2.45761455
N       -0.09406501       2.20639560      -1.14512056
O       -0.39570117       3.33347709      -0.74692997
O       -0.38463244       1.75796530      -2.25581903
