14
Properties=species:S:1:pos:R:3 Coordinates=T from=T ORCA-job=T run=T Energy:=T 74.8374753=T pbc="F F F"
C        0.82005944       0.04922403      -0.07490190
H        1.73642217       1.92316312      -0.50257289
F       -1.82835897       0.15215373       0.09369109
Cl       2.16895411      -0.52620214       1.01269708
C        0.74535906       1.57884993      -0.16253004
H       -0.15136703      -0.27593761       0.31034203
C        1.06931108      -0.54199480      -1.38478159
N        1.34868995      -1.05984031      -2.40079336
N        0.43815347       2.08449825       1.17747534
H        0.58279501       3.08837732       1.21164259
H        1.08580791       1.65148661       1.82627506
N       -0.26542322       1.87075281      -1.14504448
H       -0.49778279       2.85544122      -1.08218729
H       -1.08609018       1.29754784      -0.83750165
