16
Properties=species:S:1:pos:R:3 Coordinates=T from=T ORCA-job=T run=T Energy:=T 146.7839672=T pbc="F F F"
C        0.80858896      -0.03503906      -0.07059770
H        1.80715000       1.88266260      -0.39896984
F       -1.75562522      -0.00036817       0.63753046
H        1.46563502      -0.36404333       0.75084999
C        0.79804989       1.50824824      -0.16196204
H       -0.27656071      -0.28322953       0.19925279
C        1.22483096      -0.67075457      -1.31295814
N        1.57010288      -1.17242797      -2.32204187
C        0.34808318       2.03722684       1.19879896
H       -0.64623680       1.59639132       1.36682572
H        1.02961145       1.70340400       1.99296190
H        0.31384892       3.13570040       1.20732258
C       -0.19715392       1.95561630      -1.23087086
H        0.11887649       1.66347085      -2.24081878
H       -1.16284980       1.49946510      -0.97359244
H       -0.30453131       3.04592697      -1.22783072
