13
Properties=species:S:1:pos:R:3 Coordinates=T from=T ORCA-job=T run=T Energy:=T 91.5668250=T pbc="F F F"
C        0.01275800      -0.06353091      -0.04917113
H        2.00237579       1.02607718      -0.05142528
F       -1.38734270      -0.02110618       0.05113680
F        3.01566771       0.99295666       0.14916128
C        0.58547502       1.30702747      -0.03102207
H        0.37089826      -0.60681514       0.81791218
C        0.34005998      -0.79810900      -1.27625460
N        0.50498671      -1.49283669      -2.21015796
N        0.05825072       1.90373557       1.20986530
O       -0.55679505       2.96948635       1.15046020
O        0.27887968       1.26200396       2.23474303
C        0.25898905       2.05681232      -1.19348061
N       -0.02458316       2.65785841      -2.16528716
