12
Properties=species:S:1:pos:R:3 Coordinates=T from=T ORCA-job=T run=T Energy:=T 131.7775315=T pbc="F F F"
C        0.98984167      -0.01926467      -0.21502093
H        1.87121316       1.90308306      -0.60014647
Br      -2.49185911       0.07979109       0.96861971
Cl       2.34841208      -0.54414076       0.88201869
C        0.91291552       1.50482735      -0.25635089
H        0.06368754      -0.38718561       0.23081768
H        0.76479957       1.82457387       0.77815782
C        1.21737013      -0.61825975      -1.53007523
N        1.46835115      -1.14184526      -2.54957815
N       -0.14752893       1.94660593      -1.13352450
H       -0.16170345       2.95988862      -1.08935100
H       -1.02015933       1.60060613      -0.75183675
