16
Properties=species:S:1:pos:R:3 Coordinates=T from=T ORCA-job=T run=T Energy:=T 28.0703523=T pbc="F F F"
C        0.25681223      -0.05925638      -0.24554953
H        1.56082567       1.58716219      -0.59274466
F       -1.12344212      -0.38045377      -0.38992730
F        1.81126005      -0.30120831       2.03805630
C        0.51221522       1.45761371      -0.30062301
H        0.66734316      -0.39879662       0.73430249
C        0.93229063      -0.79295643      -1.33509337
N        1.45515819      -1.38834768      -2.20343978
C        0.41183738       2.01785325       1.11573620
H       -0.60877188       1.92507336       1.50031099
H        1.06928683       1.39114593       1.74099763
H        0.71610872       3.06827809       1.11478998
C       -0.40339568       2.20443362      -1.26916375
H       -0.34768244       1.80649224      -2.28804186
H       -1.44739985       2.15315542      -0.94957240
H       -0.10333612       3.25519138      -1.31424793
