12
Properties=species:S:1:pos:R:3 Coordinates=T from=T ORCA-job=T run=T Energy:=T 62.9283036=T pbc="F F F"
C        0.91539441      -0.03766151       0.02870530
H        1.27206263       2.02428608      -0.62077720
Br      -2.16918901      -0.30650148      -0.38494179
Cl       2.55097725      -0.23265725       0.77687212
C        0.55121557       1.42895585      -0.06826993
H        0.17074341      -0.53792344       0.64314553
H       -0.45836759       1.49640116      -0.47872845
C        0.94333968      -0.64240912      -1.29878586
N        1.06063101      -1.15198748      -2.35034005
N        0.47593167       2.03404091       1.29081657
O        0.62780341       3.25495549       1.33459503
O        0.16709754       1.32228079       2.24349873
