12
Properties=species:S:1:pos:R:3 Coordinates=T from=T ORCA-job=T run=T Energy:=T 31.2096232=T pbc="F F F"
C        0.45693130       0.07642730      -0.18510657
H        1.68022318       1.63906938      -1.03843427
Cl      -1.18456949      -0.12529848       0.58900557
Br       3.01389048      -1.18308761       1.95674269
C        0.75551362       1.54325985      -0.45201765
H        1.18142090      -0.30991812       0.54726816
H        0.81011488       2.12393654       0.46496533
C        0.53083883      -0.76799287      -1.37320495
N        0.56456072      -1.46153714      -2.32080081
N       -0.31679776       2.18517584      -1.26320865
O       -0.58582769       3.36282802      -1.02065823
O       -0.80178896       1.52514729      -2.18287061
