14
Properties=species:S:1:pos:R:3 Coordinates=T from=T ORCA-job=T run=T Energy:=T 85.9606908=T pbc="F F F"
C        1.00789170       0.05572787      -0.09937490
H        1.63951863       2.00442509      -0.61180799
Cl      -2.85684046       0.55205071       0.66714598
Cl       2.35799006      -0.21621744       1.11430971
C        0.71327517       1.55526662      -0.23388060
H        0.11986673      -0.45966733       0.27779945
C        1.43243972      -0.50077311      -1.38453362
N        1.82984714      -0.94190550      -2.39819319
N        0.38259752       2.13441707       1.06660984
H        1.11893671       2.80372514       1.31164894
H        0.41922071       1.39539726       1.75941318
N       -0.33876312       1.70245575      -1.19397408
H       -0.55008728       2.69589375      -1.28325486
H       -1.18064324       1.26566412      -0.80140786
