13
Properties=species:S:1:pos:R:3 Coordinates=T from=T ORCA-job=T run=T Energy:=T 76.9288846=T pbc="F F F"
C        0.51750637      -0.01433208      -0.14807072
H        1.58499696       1.77759339      -0.41415465
Br      -2.76253765      -0.39825305      -0.62771193
F        2.84563599       0.09250859       0.99995003
C        0.56148437       1.50236909      -0.10436400
H        0.50308035      -0.60889737       0.79693878
H       -0.15720032       1.82288468      -0.88451882
C        1.00452432      -0.71805036      -1.30810750
N        1.39066122      -1.31070610      -2.26070124
C        0.23803113       2.06918752       1.29608754
H       -0.76340117       1.79145708       1.64872891
H        0.98939544       1.64804509       1.97126623
H        0.28360300       3.16590355       1.32347737
