15
Properties=species:S:1:pos:R:3 Coordinates=T from=T ORCA-job=T run=T Energy:=T 78.2305082=T pbc="F F F"
C        0.59228994      -0.14025347      -0.44170438
H        1.68737929       1.65920668      -0.77132694
Br      -3.78518832       0.33207617       0.17788020
Br       3.12539263       0.44495986       2.77488447
C        0.70313388       1.38880960      -0.36105296
H        0.88222734      -0.62654264       0.49339431
C        1.09208309      -0.75400912      -1.65982674
N        1.50114955      -1.25978097      -2.64154983
N        0.60891031       1.80935249       1.03940395
H        0.92291022       2.77802029       1.06503928
H        1.35274349       1.32273369       1.55112224
C       -0.39785769       2.03716557      -1.18194318
H       -0.36059137       1.69049173      -2.21729207
H       -1.38260983       1.82455281      -0.75404259
H       -0.22608254       3.11513730      -1.18738577
