15
Properties=species:S:1:pos:R:3 Coordinates=T from=T ORCA-job=T run=T Energy:=T 191.7269025=T pbc="F F F"
C        0.93854488      -0.03944436      -0.00981645
H        1.78973567       1.92753753      -0.09429880
Cl      -2.09532483       0.00759820       0.06194286
Cl       2.66836371      -0.41875610       0.42102639
C        0.77899989       1.49183802      -0.09684304
H        0.30847296      -0.44446139       0.77585975
C        0.63173386      -0.72669396      -1.25893984
N        0.44582258      -1.31447960      -2.25915255
N        0.19803778       1.95858162       1.21099130
O       -0.38879194       3.03991923       1.20110044
O        0.44056897       1.31470245       2.23153309
C        0.03780898       2.05467268      -1.30235960
H        0.64698318       1.88804709      -2.19168244
H       -0.93298475       1.57126562      -1.41978246
H       -0.09074094       3.12364298      -1.15393865
