12
Properties=species:S:1:pos:R:3 Coordinates=T from=T ORCA-job=T run=T Energy:=T 29.2871368=T pbc="F F F"
C        0.58292528       0.00685632       0.20730844
H        1.79215740       1.70495115      -0.12385848
Cl      -1.18901115      -0.47320864       0.36040846
H        0.40368554      -1.26701044      -1.48173833
C        0.72866925       1.51160610       0.06631736
H        1.05788683      -0.35428953       1.11541013
H        0.16889193       1.83710297      -0.82048080
C        1.21953172      -0.72646005      -0.95778773
N        2.35030532      -0.69437876      -1.42840912
N        0.31448544       2.19071187       1.28408018
H       -0.68585774       2.08129147       1.40254484
H        0.51478016       3.18059752       1.19032505
