13
Properties=species:S:1:pos:R:3 Coordinates=T from=T ORCA-job=T run=T Energy:=T 124.6639700=T pbc="F F F"
C        0.04808242      -0.13483173      -0.11923424
H        1.76332164       1.16264415      -0.27340296
Cl      -1.74661264      -0.07830233      -0.05369138
Cl       3.82363770       0.93061653       0.35515969
C        0.65745714       1.26845110      -0.16112251
H        0.48025065       1.70367978       0.82261772
C        0.39394993      -1.05659832      -1.19750644
N        0.52386839      -1.84120942      -2.06319414
N        0.50489919      -0.74596761       1.23247018
O        0.19701012      -0.12239338       2.23792104
O        1.09063416      -1.81705666       1.18638020
C        0.04781062       2.13062474      -1.16843904
N       -0.41652932       2.87471316      -1.95068814
