14
Properties=species:S:1:pos:R:3 Coordinates=T from=T ORCA-job=T run=T Energy:=T 191.6336368=T pbc="F F F"
C        1.09156141       0.04628350      -0.02545521
H        1.42469364       2.05406233       0.44808846
F       -1.20810315      -0.10447002      -0.10040090
F        2.49367124       0.02471070      -0.04763526
C        0.58393925       1.47487363       0.05475509
H       -0.25255096       1.47242638       0.74730298
C        0.62979568      -0.72663051      -1.16580231
N        0.53263646      -1.34538238      -2.15854712
N        0.77294917      -0.71051612       1.25936458
O        0.85495048      -0.06492187       2.29666358
O        0.61030976      -1.91991971       1.17311280
N        0.17636712       1.94402332      -1.26552072
H        0.17833946       2.96037136      -1.24350089
H       -0.78636957       1.63064938      -1.39566508
