13
Properties=species:S:1:pos:R:3 Coordinates=T from=T ORCA-job=T run=T Energy:=T 89.1456602=T pbc="F F F"
C        0.57693898      -0.15283405      -0.00449920
H        1.52323320       1.72971014      -0.07719103
Br      -3.56098858       1.66597180      -0.34054618
H        4.55545051      -0.71564229      -0.06916939
C        0.49308044       1.37003635       0.01895950
H        0.09421783       1.68500357       0.99186220
C        0.99880058      -0.76310442      -1.24574157
N        1.37157903      -1.29974624      -2.22491782
C        0.96767338      -0.82170195       1.21404579
N        1.28603829      -1.36688063       2.20791344
N       -0.31419404       1.78577368      -1.10435626
H       -0.24049814       2.79411908      -1.17822351
H       -1.28944147       1.58246497      -0.88334597
