15
Properties=species:S:1:pos:R:3 Coordinates=T from=T ORCA-job=T run=T Energy:=T 166.3765651=T pbc="F F F"
C        0.18358338      -0.08419398      -0.16404325
H        1.49913804       1.54735239      -0.52257675
F       -1.16591336      -0.30051229      -0.57376466
F        2.33220268       0.23255101       0.61245066
C        0.49119336       1.43911445      -0.12906885
C        1.02422124      -0.77286236      -1.15938940
N        1.50226276      -1.36390615      -2.05311576
C        0.29702185      -0.73342547       1.14639527
N        0.16463997      -1.35123891       2.13538017
N        0.43344109       1.89553286       1.26576938
H        0.33132599       2.91185678       1.28057175
H        1.36184406       1.67958233       1.64567791
N       -0.49912908       2.08994470      -0.95840520
H       -0.02643546       2.82721573      -1.46277471
H       -1.15319652       2.51287892      -0.30900656
