16
Properties=species:S:1:pos:R:3 Coordinates=T from=T ORCA-job=T run=T Energy:=T 194.9640120=T pbc="F F F"
C        1.34086234      -0.00740371      -0.00494737
H        1.51520780       2.06209909      -0.40345218
Cl      -3.50938114       1.95405521      -0.27787909
Cl       3.11637412       0.18234494       0.51545001
C        0.70105238       1.41495510      -0.07385591
C        1.35254152      -0.67804314      -1.29490570
N        1.50962493      -1.28579101      -2.28896913
C        0.78053193      -0.86814830       1.03957457
N        0.58495602      -1.55020785       1.97446957
C        0.22502250       1.88068850       1.30101962
H       -0.53392827       1.22150372       1.70938637
H        1.02304495       1.96408371       2.03040264
H       -0.23653030       2.85222098       1.15794666
N       -0.33937266       1.46431875      -1.08151894
H       -0.45417982       2.44579391      -1.33231293
H       -1.24903631       1.22024008      -0.69290817
