13
Properties=species:S:1:pos:R:3 Coordinates=T from=T ORCA-job=T run=T Energy:=T 70.6918732=T pbc="F F F"
C        0.25569729      -0.01449729       0.03194409
H        1.68463524       1.52044903       0.14741323
Cl      -1.60408249      -0.17551057       0.13602829
F        2.58005405      -0.17278578      -0.14591372
C        0.59998304       1.47922419       0.03828598
H        0.07705266       1.92018583       0.89693858
C        0.63567257      -0.69011538      -1.20472933
N        0.68912111      -1.28601751      -2.21661682
C        0.77475102      -0.71119981       1.20278053
N        0.95479791      -1.29206992       2.20862445
N        0.20986031       2.05931809      -1.23229357
H        0.32583500       3.06785019      -1.17755748
H       -0.77353770       1.85656893      -1.38568423
