14
Properties=species:S:1:pos:R:3 Coordinates=T from=T ORCA-job=T run=T Energy:=T 50.6086697=T pbc="F F F"
C        1.10979374      -0.06537215      -0.06368781
H        1.11482366       1.93469568       0.66958691
Cl      -2.90010263       1.20887834       0.82110473
Br       3.10053431       0.12677662      -0.54676404
C        0.49104828       1.33113471       0.00689697
H       -0.55353847       1.25908372       0.38410306
C        0.50275010      -0.86526723      -1.12559371
N       -0.05621028      -1.60103037      -1.86547370
C        1.19755290      -0.92646888       1.13487975
N        1.35876892      -1.69173589       2.03541528
C        0.37588209       2.00706424      -1.34777056
H        1.34301803       2.28440574      -1.80703184
H       -0.14104117       1.31416077      -2.03928788
H       -0.25960948       2.91745469      -1.23060714
