18
Properties=species:S:1:pos:R:3 Coordinates=T from=T ORCA-job=T run=T Energy:=T 98.7810425=T pbc="F F F"
C        0.37632763      -0.09995248      -0.43187045
H        1.03091229       1.62756170      -1.39082564
F       -0.60573876      -0.41685195      -1.40239286
F        2.24271417       0.09545490       2.23233247
C        0.54556510       1.44173185      -0.42454685
C        1.61976681      -0.69820562      -0.96778573
N        2.56839954      -1.17700037      -1.46768842
C       -0.03818330      -0.67991738       0.89017670
H        0.82598923      -0.58257501       1.57602935
H       -0.86361055      -0.07647569       1.28031118
H       -0.34883758      -1.71979170       0.75889136
N        1.32324603       1.95953730       0.67899686
H        2.19818757       2.29464511       0.29431722
H        1.60330527       1.20942050       1.37377370
C       -0.81128386       2.15539101      -0.47331990
H       -1.47092629       1.65936847      -1.18704671
H       -1.27810359       2.19610034       0.51155673
H       -0.64872971       3.18571901      -0.80290900
