16
Properties=species:S:1:pos:R:3 Coordinates=T from=T ORCA-job=T run=T Energy:=T 89.3702246=T pbc="F F F"
C       -0.05605681      -0.15401840      -0.02352046
H        1.57842882       1.17812466      -0.19142158
Cl      -1.88436365      -0.10943211       0.26271528
Cl       3.89427088       1.16862122       1.52676093
C        0.49244558       1.27618672      -0.07653071
H        0.10554980       1.78511335      -0.96720764
C        0.09878717      -0.78876716      -1.33956854
N        0.14122863      -1.25260458      -2.41765002
C        0.57364248      -0.96931485       1.09980403
H        1.66346451      -0.90102739       1.03198780
H        0.25163101      -0.55991273       2.05749150
H        0.26136714      -2.01158988       1.04405305
C        0.23333275       2.09651189       1.18783107
H       -0.80223028       2.02025770       1.52310040
H        0.92357474       1.77881689       1.97430961
H        0.44441725       3.14342467       0.95965528
