17
Properties=species:S:1:pos:R:3 Coordinates=T from=T ORCA-job=T run=T Energy:=T 142.4760286=T pbc="F F F"
C        0.67516572      -0.20996363      -0.28739203
H        1.94336152       1.51410971      -0.12644765
Cl      -3.45003299       0.67249548       2.35548284
Cl       4.19837012       1.39343326       1.65051720
C        0.85637630       1.31986057      -0.22767241
C        0.38441908      -0.87776867      -1.53031659
N        0.17755913      -1.39301631      -2.56823225
C        0.55789646      -1.00362022       0.99221967
H        1.24625981      -0.57852294       1.72336687
H       -0.47593325      -0.93125658       1.33558167
H        0.79431415      -2.05479242       0.83381762
C        0.17843281       1.90566014       1.02398006
H       -0.80896206       1.46492255       1.21695922
H        0.84496581       1.70568675       1.86926794
H        0.04941942       2.98709707       0.94256974
C        0.34428367       1.92392264      -1.45982573
N       -0.06350569       2.40040259      -2.45565619
