16
Properties=species:S:1:pos:R:3 Coordinates=T from=T ORCA-job=T run=T Energy:=T 75.2834575=T pbc="F F F"
C        1.16020527      -0.04841889       0.09292846
H        1.17106321       1.90095619      -0.81535397
F       -2.02903950       0.26938463       0.73374955
F        2.53641598       0.02076746       0.43769470
C        0.57022670       1.34311306      -0.08599084
H       -0.44504400       1.15562577      -0.45704098
C        1.16445855      -0.75015793      -1.20820109
N        1.23364046      -1.29979169      -2.24318093
C        0.41432364      -0.83893543       1.12917809
H        0.70930722      -0.46944296       2.11277701
H       -0.66970689      -0.62071227       0.97161993
H        0.63562235      -1.90560941       1.05535458
C        0.40572260       2.08446116       1.24458963
H       -0.50298833       1.67577078       1.70268744
H        1.27592130       1.94875023       1.89222542
H        0.27617144       3.15568930       1.06409299
