16
Properties=species:S:1:pos:R:3 Coordinates=T from=T ORCA-job=T run=T Energy:=T 104.3207729=T pbc="F F F"
C        0.97268846      -0.10844762      -0.08705256
H        1.66889037       1.85113871       0.38757616
F       -1.52464355       0.24069725       0.20586295
H        1.99601428      -0.27897373      -0.45320934
C        0.73361405       1.41363858       0.01261512
H       -0.06835725       1.54940323       0.74417881
C        0.11569470      -0.78076794      -1.07268894
N       -0.32270673      -1.43734295      -1.94755348
C        0.82754565      -0.77501571       1.28618323
H        1.51861696      -0.32595335       2.00503187
H       -0.20663430      -0.63986605       1.61677454
H        1.07074185      -1.83903754       1.22322768
C        0.32143626       2.07510126      -1.30068557
H        0.95970406       1.77990506      -2.13831239
H       -0.70954280       1.79385211      -1.52737398
H        0.38770800       3.16277869      -1.21855411
