16
Properties=species:S:1:pos:R:3 Coordinates=T from=T ORCA-job=T run=T Energy:=T 56.0553182=T pbc="F F F"
C        1.17587705       0.00605505       0.10467787
H        0.93145749       1.95254587      -0.84204199
F       -1.99982682      -0.00121096       0.24623249
Br       3.11199033       0.32639807       0.68614209
C        0.44795369       1.33098054      -0.07796561
H       -0.56695533       0.99211803      -0.37113025
C        1.31773210      -0.70704801      -1.16942240
N        1.44262480      -1.27766789      -2.19095721
C        0.46268144      -0.82776488       1.14415263
H        0.82952541      -1.85629952       1.16892678
H        0.59908835      -0.35144360       2.11635438
H       -0.61381418      -0.74960234       0.84659545
C        0.24901149       2.05724226       1.25247839
H       -0.60161176       1.57648956       1.73815109
H        1.12747408       2.01649122       1.89929056
H        0.01468186       3.11172660       1.08095573
