13
Properties=species:S:1:pos:R:3 Coordinates=T from=T ORCA-job=T run=T Energy:=T 112.6794952=T pbc="F F F"
C        1.31345919      -0.06299558      -0.05071183
H        0.77448180       1.84367674       0.75041807
Cl      -2.68130159       0.95413406       1.31020973
Cl       3.10726623       0.30914008       0.11303639
C        0.56684229       1.25815228      -0.14727429
H       -0.51063263       1.07174060      -0.20716830
H        0.90642009       1.82439163      -1.01284431
C        1.16075859      -0.83929895      -1.28457447
N        1.03336292      -1.44650518      -2.28112823
C        0.84507971      -0.87173657       1.15093145
H        1.38651945      -1.81584987       1.23490679
H        1.00078041      -0.28689806       2.06084209
H       -0.23125647      -1.03890119       1.04181692
