17
Properties=species:S:1:pos:R:3 Coordinates=T from=T ORCA-job=T run=T Energy:=T 56.0755598=T pbc="F F F"
C        0.45499345      -0.11142171      -0.22117436
H        1.89656288       1.43300943      -0.50957040
Br      -4.23052808      -0.72677037       0.25818241
Cl       4.06088942       1.55807887       1.79295656
C        0.86128815       1.35911231      -0.15549819
C        0.63171690      -0.74951915      -1.49988881
N        0.80347652      -1.30669883      -2.52265474
C        0.37557374      -0.91098424       1.05500942
H        1.35557974      -0.90032770       1.53167460
H       -0.33618309      -0.42381041       1.71935899
H        0.05865295      -1.93418494       0.86107225
N        0.72926527       1.81634084       1.23467448
H        0.36730298       2.76491823       1.21769807
H        1.67337334       1.86281885       1.62646405
N        0.00557576       2.03665253      -1.10582170
H        0.39164465       2.96357160      -1.25302457
H       -0.90516457       2.13043470      -0.66441807
