15
Properties=species:S:1:pos:R:3 Coordinates=T from=T ORCA-job=T run=T Energy:=T 128.5701442=T pbc="F F F"
C        1.03463867      -0.00179625       0.00990941
H        0.93727124       1.98213879       0.75282760
F       -1.79674566       0.01578109       0.48806180
Br       3.00608565       0.25671897      -0.28037062
C        0.39247035       1.37824753       0.02297860
H       -0.66298040       1.14813697       0.33644636
C        0.56979662      -0.76918005      -1.14248876
N        0.24629951      -1.39913618      -2.07954592
C        0.84480726      -0.75547831       1.31590505
H        1.27603877      -1.75989928       1.25705968
H        1.35348743      -0.22593753       2.12707481
H       -0.24540469      -0.77198231       1.46626461
N        0.48385165       1.98752457      -1.29654020
H        0.69597209       2.97033063      -1.20247707
H       -0.40079848       1.88069137      -1.77332535
