15
Properties=species:S:1:pos:R:3 Coordinates=T from=T ORCA-job=T run=T Energy:=T 46.3149200=T pbc="F F F"
C        0.02281106      -0.14325603       0.00708398
H        1.57652268       1.24145009      -0.04361916
F       -1.37607729      -0.23238039       0.16922700
Cl       3.67943182       0.22174690       0.97585330
C        0.48698979       1.30451725      -0.00852447
H        0.13667437       1.79484003      -0.92326414
C        0.23326634      -0.73689620      -1.34387485
N        0.28680027      -1.21697613      -2.41317375
N        0.63542487      -0.85413440       1.07784087
H        1.62758680      -0.57952954       1.12927008
H        0.57611204      -1.85482588       0.93121900
C        0.03729380       2.08145392       1.22781974
H       -1.05232566       2.20399760       1.25073627
H        0.35831253       1.58297853       2.14476500
H        0.49679657       3.07209424       1.20437113
