16
Properties=species:S:1:pos:R:3 Coordinates=T from=T ORCA-job=T run=T Energy:=T 226.1014452=T pbc="F F F"
C        1.20302278       0.04885335      -0.04615996
H        1.86324146       2.03415803       0.00797869
Cl      -2.39449590      -1.14967670       1.93563108
F        2.60807035      -0.03439383       0.20912162
C        0.87789731       1.56410606      -0.07435623
C        1.08006882      -0.57316621      -1.38435266
N        1.09291360      -1.10517295      -2.43243782
N        0.61388915      -0.66073623       1.02465769
H        0.89456196      -1.63192214       0.99449486
H       -0.41669140      -0.63086482       1.11376279
C       -0.00946287       1.97366698       1.09558651
H       -0.94478167       1.40248618       1.10311606
H        0.53246843       1.75513093       2.01667553
H       -0.23506965       3.04078736       1.04464202
C        0.30219308       2.03862033      -1.34259281
N       -0.13116543       2.44464366      -2.36015735
