16
Properties=species:S:1:pos:R:3 Coordinates=T from=T ORCA-job=T run=T Energy:=T 135.2468606=T pbc="F F F"
C        1.20037006       0.13598711      -0.09892804
H        1.59147387       2.15302255       0.41621578
F       -1.21714594      -0.63326849       1.22154981
F        2.47710045       0.19773910      -0.68640167
C        0.71815548       1.60898047       0.05595493
C        0.40628890      -0.66185195      -1.07425931
N       -0.11594422      -1.37643731      -1.84935440
N        1.33666704      -0.44694558       1.19331799
H        1.82711820      -1.33005526       1.08491398
H        0.33460993      -0.65079451       1.45796312
N       -0.44454922       1.80958041       0.82433572
H       -0.15765828       2.02576763       1.76263831
H       -0.97706659       0.90973024       0.89236578
N        0.45916077       2.18066919      -1.33201234
O        1.30436021       2.91564862      -1.83993421
O       -0.63636065       1.90887777      -1.82683544
