15
Properties=species:S:1:pos:R:3 Coordinates=T from=T ORCA-job=T run=T Energy:=T 120.1221679=T pbc="F F F"
C        1.16370508       0.08838578      -0.17173153
H        1.55357299       1.99093073       0.57840530
F       -0.99696827      -0.57023167       1.54268722
F        2.34309555       0.12302006      -0.93246404
C        0.72250663       1.56737352      -0.00115711
C        0.20371040      -0.69191368      -1.00485070
N       -0.45805658      -1.40010525      -1.66982012
N        1.49106723      -0.47539713       1.09990149
H        1.89016551      -1.39429485       0.94143826
H        0.53714535      -0.59253553       1.54356448
N       -0.55927935       1.78448193       0.63296925
H       -0.34852271       2.28362746       1.48892097
H       -0.93079862       0.84665445       0.95819325
C        0.72128673       2.23893458      -1.30782607
N        0.66058004       2.79382960      -2.34110065
