15
Properties=species:S:1:pos:R:3 Coordinates=T from=T ORCA-job=T run=T Energy:=T 13.3021905=T pbc="F F F"
C        0.90653342       0.00981929      -0.12043538
H        1.90160916       1.72019379      -0.91559180
F       -1.83049401      -0.08566764       0.38006643
Br       2.49062562      -0.55731767       0.95527228
C        0.98721064       1.51368181      -0.34999603
H        0.00012136      -0.20785526       0.46520613
H        1.11152065       2.00710205       0.62018195
C        0.89652490      -0.77679459      -1.41179398
H       -0.05973364      -0.62722007      -1.91491405
H        1.71509995      -0.45299572      -2.05561776
H        1.02584995      -1.84156802      -1.22480514
C       -0.26769737       2.02287136      -1.05546057
H       -0.24585024       1.76720438      -2.12336083
H       -1.12048695       1.50790430      -0.57596236
H       -0.35569343       3.11435200      -0.96634891
