13
Properties=species:S:1:pos:R:3 Coordinates=T from=T ORCA-job=T run=T Energy:=T 37.2571110=T pbc="F F F"
C        0.01931805      -0.03152673      -0.11925806
H        1.96218025       0.94892430       0.18142845
Cl      -1.79098044       0.13945676      -0.25170516
F        3.00744689       0.50508922       0.07094973
C        0.65568267       1.30689301       0.05760277
H        0.16187685      -0.62346801       0.78956351
H        0.56784769       1.92810935      -0.83854041
C        0.57379164      -0.78913509      -1.31719341
H        0.15167322      -1.79685184      -1.34041991
H        0.31355099      -0.28894655      -2.25637066
H        1.65882908      -0.80106538      -1.17924384
C        0.22882992       1.98830822       1.24829750
N       -0.11720681       2.54806275       2.22249947
