17
Properties=species:S:1:pos:R:3 Coordinates=T from=T ORCA-job=T run=T Energy:=T 34.6304554=T pbc="F F F"
C        0.39078706      -0.05949117      -0.17303391
H        1.49930881       1.70393416      -0.39560902
Br      -1.35318712      -0.70161064       0.65645702
Br       3.62473348      -0.04965941       1.77611689
C        0.44952888       1.46373455      -0.20110753
H        1.16692422      -0.40605605       0.51010097
C        0.46606434      -0.71317968      -1.53044122
H       -0.35332130      -0.32735506      -2.14167861
H        1.42084716      -0.48361409      -2.01450124
H        0.37959619      -1.79926768      -1.44475684
C        0.11357664       2.04794657       1.16337991
H       -0.92392014       1.84502066       1.42760325
H        0.76890296       1.58917568       1.90507165
H        0.28495765       3.12502083       1.14833014
N       -0.32983768       2.01090456      -1.30216017
H       -0.06282614       2.98285013      -1.41464830
H       -1.31861501       1.98022662      -1.08790301
