16
Properties=species:S:1:pos:R:3 Coordinates=T from=T ORCA-job=T run=T Energy:=T 23.4888027=T pbc="F F F"
C        0.49673980       0.02067964      -0.19306135
H        1.79130868       1.75209046      -0.14387093
Cl      -1.01910140      -1.54799636       2.40750486
H        1.00830056      -0.36006507       0.69301351
C        0.71006023       1.54457891      -0.19070650
H       -0.55802961      -0.19968066       0.00459035
C        0.95116141      -0.71959746      -1.44416515
H        0.31661398      -0.47201081      -2.29961786
H        1.99199536      -0.50318263      -1.69194363
H        0.87274874      -1.79022343      -1.26021561
C        0.06321350       2.17884328       1.05142835
H       -0.94532074       1.78648934       1.20885471
H        0.66175007       1.90667491       1.92504731
H        0.02231518       3.26797012       0.97866696
C        0.25256048       2.17318597      -1.42423517
N       -0.08924622       2.70087378      -2.42002985
