17
Properties=species:S:1:pos:R:3 Coordinates=T from=T ORCA-job=T run=T Energy:=T 37.3053583=T pbc="F F F"
C        0.30428572      -0.06312636      -0.18807367
H        1.56902846       1.54644103      -0.62705810
Br      -1.57038081      -0.46375854       0.40459495
Cl       3.03810090       0.04633291       2.00336429
C        0.53505291       1.44365938      -0.27727034
H        0.91751715      -0.40530260       0.64386135
C        0.62261391      -0.82036443      -1.45402818
H       -0.05841420      -0.57431450      -2.27156344
H        1.63654101      -0.56912421      -1.77323229
H        0.58114899      -1.89777977      -1.28090462
N        0.43512383       2.01729727       1.07245794
H        0.75132006       2.98193826       1.00050344
H        1.12437327       1.52442335       1.63885459
C       -0.40577037       2.16810562      -1.22822740
H       -0.34749841       1.75659636      -2.23994075
H       -1.42779532       2.09410814      -0.85952540
H       -0.14230712       3.22607807      -1.26164238
