15
Properties=species:S:1:pos:R:3 Coordinates=T from=T ORCA-job=T run=T Energy:=T 113.0582335=T pbc="F F F"
C        0.11179302      -0.05738601      -0.16156528
H        1.64926708       1.27977988      -0.11936007
Br      -1.82872304      -0.25326231       0.08795052
H        2.77915214       0.03607520       0.86248665
C        0.54331749       1.40226035      -0.09093222
H        0.57713849      -0.48996975       0.72263627
C        0.61695030      -0.77734797      -1.38792400
H        0.28530338      -1.81740797      -1.38477186
H        0.28439260      -0.31075861      -2.31578125
H        1.71012961      -0.75082866      -1.33109136
N        0.14286590       2.00132966       1.19689195
H        0.34813237       2.99720191       1.15837894
H        0.78108185       1.59478289       1.87443848
C        0.09048135       2.22642712      -1.21707850
N       -0.27642254       2.89204426      -2.11604827
