16
Properties=species:S:1:pos:R:3 Coordinates=T from=T ORCA-job=T run=T Energy:=T 56.2340832=T pbc="F F F"
C        0.32305261       0.02158798      -0.11156895
H        1.60384329       1.58521161      -0.64478242
Br      -1.48893141      -0.32633397       0.61903467
H        2.92008326       0.41167145       0.75603597
C        0.57553012       1.51983719      -0.25428674
H        1.02941297      -0.24096593       0.67705533
C        0.65284749      -0.86537305      -1.28572162
H        0.04540588      -0.65765983      -2.15945120
H        1.70743678      -0.67595147      -1.50469670
H        0.53165652      -1.91500061      -0.99997959
N        0.48965881       2.26010019       0.98552299
H        1.32056587       1.99224183       1.49908091
H       -0.32105941       1.93685923       1.50682947
N       -0.33941755       2.16417209      -1.25854439
O       -0.91106968       3.21263307      -0.94929590
O       -0.42669554       1.63303020      -2.36791183
