13
Properties=species:S:1:pos:R:3 Coordinates=T from=T ORCA-job=T run=T Energy:=T 43.1134672=T pbc="F F F"
C        0.22053739      -0.10579864      -0.00093405
H        1.74067415       1.27099052      -0.24258665
Cl      -1.55935455      -0.34900168       0.30023135
F        3.04484343       0.66530869      -0.41711274
C        0.57678274       1.36149334      -0.06428710
H        0.71419589      -0.52632682       0.87876498
H        0.36625338       1.86312093       0.88544718
C        0.66810960      -0.83603848      -1.25067102
H        0.12491061      -0.46713211      -2.12502076
H        1.73712139      -0.59738634      -1.32107402
H        0.49775196      -1.91273971      -1.16207782
C       -0.08730877       2.04358882      -1.15420891
N       -0.63029721       2.59220147      -2.04136044
