14
Properties=species:S:1:pos:R:3 Coordinates=T from=T ORCA-job=T run=T Energy:=T 24.1071822=T pbc="F F F"
C        1.04543969       0.00459850       0.01856966
H        1.04400726       2.02684766      -0.73396379
F       -1.83011602       0.28168054      -0.68350269
Cl       2.82661648       0.04561974       0.41168884
C        0.46662036       1.37947893      -0.07316976
H        0.57259501      -0.48221209       0.86627617
H       -0.60888161       1.13642415      -0.40163936
C        0.77742372      -0.76409169      -1.25489714
H       -0.31309075      -0.76153553      -1.32589575
H        1.19937518      -0.22855277      -2.11281628
H        1.21713268      -1.76029652      -1.19026511
N        0.43235293       1.98374125       1.26825153
O        0.93552407       3.09541634       1.43642432
O       -0.13314900       1.33879149       2.15461935
