14
Properties=species:S:1:pos:R:3 Coordinates=T from=T ORCA-job=T run=T Energy:=T 13.5025328=T pbc="F F F"
C       -0.23164707      -0.32248696      -0.03837554
H        3.17237665       1.80987909      -0.30621934
Cl      -2.05342864      -0.47567111      -0.16581117
H        3.59958811       1.97056266      -0.37846340
C        0.04940110       1.13454716       0.05775693
H        0.04765815      -0.80134095       0.89960100
H       -0.03618017       1.78701127      -0.81014152
C        0.48120920      -0.96394222      -1.23415464
H        0.00079304      -0.66676713      -2.17291915
H        1.53050853      -0.66005960      -1.21615921
H        0.43986647      -2.05155728      -1.13441624
N        0.15688978       1.88948611       1.24891932
O        0.39502026       3.10242792       1.10589858
O       -0.03897543       1.33398106       2.33907438
