15
Properties=species:S:1:pos:R:3 Coordinates=T from=T ORCA-job=T run=T Energy:=T 13.3972530=T pbc="F F F"
C        0.94314131       0.00454785      -0.05890474
H        1.96611626       1.72658944      -0.80935244
F       -1.86890828      -0.12091565       0.23447931
F        2.08558656      -0.37832998       0.71048230
C        1.01796171       1.50321285      -0.31170777
H        0.01487051      -0.18768403       0.48984390
H        1.06577510       1.99314371       0.66553965
C        0.92507150      -0.79862326      -1.34063050
H       -0.05132319      -0.69050383      -1.81313967
H        1.70287855      -0.46461458      -2.03043481
H        1.08525258      -1.85692604      -1.13288473
C       -0.18413672       2.01220458      -1.09984985
H       -0.06576105       1.82968356      -2.17278789
H       -1.06337742       1.46539613      -0.71979899
H       -0.32000742       3.08883927      -0.96758376
