14
Properties=species:S:1:pos:R:3 Coordinates=T from=T ORCA-job=T run=T Energy:=T 15.4882209=T pbc="F F F"
C        1.14560147       0.05061891      -0.25311481
H        1.47525126       2.12657813      -0.46926599
Cl      -3.70631619       1.23444421       0.06071953
Br       4.70843853      -0.57966339       0.80267897
C        0.64992487       1.47598126      -0.14100801
H        2.04951950      -0.18028442       0.30817408
H        0.45679473       1.70083509       0.92142499
C        0.87921960      -0.75142598      -1.50105043
H        0.15675465      -0.23659140      -2.12841838
H        1.80692544      -0.87002977      -2.05782225
H        0.48022371      -1.74013602      -1.25878570
N       -0.52570559       1.67589562      -0.97800051
H       -0.77567817       2.65412032      -0.97120287
H       -1.32907379       1.20355747      -0.55710862
