12
Properties=species:S:1:pos:R:3 Coordinates=T from=T ORCA-job=T run=T Energy:=T 1.2413616=T pbc="F F F"
C        1.10413700      -0.02323906      -0.02107114
H        1.35525547       1.95631011      -0.85807820
Br      -2.49157715      -0.34457330       0.26604199
Cl       2.84867039      -0.23308514       0.47261504
C        0.76819281       1.45177796      -0.08596735
H        0.50250581      -0.50038449       0.75816756
H        0.95439968       1.93847246       0.87414467
H       -0.29488379       1.52773036      -0.32053958
C        0.86263636      -0.72068710      -1.34318125
H       -0.20130155      -0.62437696      -1.56605619
H        1.45175121      -0.26428851      -2.14315133
H        1.11615376      -1.78130633      -1.27859422
