15
Properties=species:S:1:pos:R:3 Coordinates=T from=T ORCA-job=T run=T Energy:=T 65.7940604=T pbc="F F F"
C        0.18050801      -0.07735703      -0.12689153
H        1.48175045       1.56088344      -0.46415894
Cl      -1.57718446      -0.36323483       0.19327099
Br       3.45371406       0.19299296       0.90728549
C        0.43456942       1.43231940      -0.15739196
H        0.71773076      -0.45767268       0.74319023
C        0.64709132      -0.78677711      -1.37653873
H        0.14076316      -0.41588285      -2.26895349
H        1.72362972      -0.63526101      -1.46552038
H        0.44434508      -1.85444410      -1.27934928
N        0.22416228       1.98321214       1.18486622
H        0.37255208       2.98638410       1.13535788
H        0.97677471       1.59912161       1.75023216
C       -0.42471908       2.09833870      -1.14369339
N       -1.09379751       2.64740726      -1.93808528
