13
Properties=species:S:1:pos:R:3 Coordinates=T from=T ORCA-job=T run=T Energy:=T 26.5058122=T pbc="F F F"
C        1.00056857      -0.06992569       0.04462325
H        0.79592287       1.94225747      -0.74038276
F       -1.84387457       0.59557476      -0.78247861
Br       2.91569742       0.02257584       0.56321292
C        0.38958730       1.29610776       0.04301428
H        0.54684023      -0.68049563       0.83263803
H       -0.89065811       0.99282266      -0.29816928
C        0.88248019      -0.78418639      -1.29597406
H       -0.17982816      -0.74831992      -1.55283234
H        1.49149987      -0.30146045      -2.06766361
H        1.24256296      -1.81092014      -1.19347423
C        0.39125270       1.93430032       1.32822734
N        0.39075872       2.45407941       2.38298906
