16
Properties=species:S:1:pos:R:3 Coordinates=T from=T ORCA-job=T run=T Energy:=T 49.6689050=T pbc="F F F"
C        0.80023799       0.04222218      -0.09338974
H        1.52901098       1.99820032      -0.65909843
F       -1.87913653      -0.19608467      -0.66355441
Br       2.40508171      -0.32560213       0.98666486
C        0.63500545       1.55822744      -0.21611921
H       -0.02521059      -0.35090571       0.47778280
C        0.92487705      -0.68641284      -1.43196112
H       -0.06812678      -0.61764003      -1.88501862
H        1.71520696      -0.25994815      -2.06367283
H        1.16086030      -1.74165349      -1.25110005
N        0.68644634       2.16413947       1.22258900
O        1.37974201       3.16722289       1.40003793
O       -0.04030796       1.64745293       2.06808822
N       -0.55062805       1.92460169      -0.85676006
H       -0.95223081       2.73295008      -0.39878400
H       -1.22952805       1.08170000      -0.80588436
