17
Properties=species:S:1:pos:R:3 Coordinates=T from=T ORCA-job=T run=T Energy:=T 58.9595018=T pbc="F F F"
C        0.94238689       0.01297187      -0.06646568
H        1.83948746       1.99759288      -0.14007898
Br      -2.30805311      -0.45626578       0.74129872
Cl       2.50904927      -0.45174818       0.71236072
C        0.84525415       1.54119000      -0.16952536
H        0.17194995      -0.29092083       0.63875361
C        0.72882198      -0.69905634      -1.38988929
H       -0.32072081      -0.59666149      -1.66858121
H        1.36771910      -0.28345412      -2.17333436
H        0.97401028      -1.76077949      -1.32078010
N        0.25580701       2.01496730       1.14763748
O       -0.50094801       2.98358824       1.12910297
O        0.62354573       1.44883981       2.17961813
C        0.02748151       2.04961969      -1.34642605
H        0.60006766       1.86514103      -2.25717725
H       -0.92261819       1.52152183      -1.39364467
H       -0.18452087       3.11044362      -1.25532869
