14
Properties=species:S:1:pos:R:3 Coordinates=T from=T ORCA-job=T run=T Energy:=T 24.4496723=T pbc="F F F"
C        0.28560459      -0.03579200      -0.06064081
H        1.62737728       1.57897325      -0.28106302
Br      -1.59364878      -0.34701259       0.52429159
Br       3.93866531      -0.12246887       0.49358929
C        0.54497154       1.46023661      -0.14295510
H        0.90010521      -0.45363963       0.73513101
H        0.29464979       1.91243494       0.82783691
C        0.53981597      -0.75131316      -1.37115680
H       -0.03281766      -0.26269689      -2.16115425
H        1.60725628      -0.66838294      -1.59386300
H        0.26870936      -1.80753040      -1.31516987
N       -0.14368180       2.09860323      -1.25733102
H       -0.10191924       3.09989969      -1.10754737
H       -1.12316784       1.82866876      -1.25763757
