14
Properties=species:S:1:pos:R:3 Coordinates=T from=T ORCA-job=T run=T Energy:=T 125.5152269=T pbc="F F F"
C        0.77748140       0.02875924      -0.08892031
H        1.81941600       1.90240028      -0.28531213
Br      -2.29999650      -1.78710325       1.12826944
Br       2.52696588      -0.51677707       0.78818182
C        0.76776305       1.58564731      -0.13689082
H       -0.00115582      -0.41077849       0.54928011
C        0.76887779      -0.62007490      -1.45616765
H       -0.19867805      -0.49520901      -1.94712294
H        1.54614004      -0.21182963      -2.10997623
H        0.94613346      -1.68280546      -1.30703835
C        0.34895032       2.23976968       1.11167307
N        0.11322405       2.83087143       2.09977275
C        0.06021105       2.14577401      -1.31094406
N       -0.39615265       2.60686587      -2.29555470
