15
Properties=species:S:1:pos:R:3 Coordinates=T from=T ORCA-job=T run=T Energy:=T 152.0916347=T pbc="F F F"
C        0.96270554       0.02270879       0.00006764
H        1.77548516       1.93119627      -0.48473212
F       -1.85059089      -0.01900192      -0.62039395
F        2.22752399      -0.17983589       0.58311665
C        0.80150559       1.54217296      -0.15266236
H        0.19507729      -0.32602681       0.68915913
C        0.85609351      -0.72912066      -1.31066056
H       -0.20239502      -0.64810855      -1.56961996
H        1.50073440      -0.28843432      -2.07566881
H        1.13471778      -1.77324249      -1.14567239
C        0.56654168       2.10036768       1.20477849
N        0.27732455       2.53590299       2.25740519
N       -0.23739530       1.90020268      -1.08176022
H       -0.56480185       2.83131194      -0.84381544
H       -1.03691642       1.19557732      -0.95728128
