15
Properties=species:S:1:pos:R:3 Coordinates=T from=T ORCA-job=T run=T Energy:=T 17.1183708=T pbc="F F F"
C        0.36108356      -0.06756673      -0.06969990
H        1.73294259       1.40000508      -0.48169672
Br      -1.49560776      -0.40492941       0.58091915
H        2.97549154      -0.04178457       0.46240112
C        0.66637815       1.40383387      -0.22160337
H        1.01993184      -0.44046983       0.71501542
H        0.58863348       1.88010632       0.75746567
C        0.64011775      -0.83586881      -1.33368835
H        0.03341002      -0.47558945      -2.16498279
H        1.70220194      -0.67929530      -1.54441215
H        0.45895759      -1.90300590      -1.19838731
C       -0.15819937       2.16239804      -1.24886980
H        0.10020932       1.86332355      -2.26739665
H       -1.22813311       1.99561988      -1.09638855
H        0.02011246       3.23610326      -1.16121576
