16
Properties=species:S:1:pos:R:3 Coordinates=T from=T ORCA-job=T run=T Energy:=T 55.8444345=T pbc="F F F"
C        0.33895848      -0.02341576      -0.16052275
H        1.50836686       1.68975027      -0.46039793
Cl      -1.37685325      -0.50262067       0.11231354
H        2.88685241       0.54669875       0.58513438
C        0.45498318       1.49514353      -0.17729281
H        0.90080718      -0.31670281       0.72271565
C        0.98350795      -0.75007273      -1.32108868
H        0.54335998      -0.50548282      -2.28267898
H        2.03589048      -0.45380513      -1.29607202
H        0.91634390      -1.82582971      -1.14373781
N        0.16072997       2.13862222       1.08283121
H        1.01711094       2.10960356       1.62062516
H       -0.54192926       1.59190415       1.56736074
N       -0.43892600       2.10362030      -1.21970995
O       -0.61876374       1.47292980      -2.26750547
O       -0.92313908       3.21882706      -0.99603428
