15
Properties=species:S:1:pos:R:3 Coordinates=T from=T ORCA-job=T run=T Energy:=T 116.7212529=T pbc="F F F"
C        0.16421755      -0.17625895       0.04055353
H        1.91313518       1.28620337      -0.06879348
Cl      -1.64522252      -0.38646536       0.11155905
F        2.93452087       1.37362425      -0.39906460
C        0.49084581       1.26675175       0.04880681
H        0.13784271       1.69381672      -0.90514131
C        0.67678611      -0.86037103      -1.20185654
H        0.25269132      -0.36921431      -2.07833932
H        1.76285419      -0.76172635      -1.25427712
H        0.35952338      -1.89811839      -1.22813768
N        0.64326406      -0.88976999       1.29570780
O        0.60333147      -0.27043234       2.35584290
O        0.93299587      -2.07842563       1.18188028
C       -0.02681038       2.03309908       1.15050942
N       -0.48395562       2.72829719       1.98248027
