16
Properties=species:S:1:pos:R:3 Coordinates=T from=T ORCA-job=T run=T Energy:=T 57.3010743=T pbc="F F F"
C        1.26628949       0.04888867      -0.05400055
H        1.70319999       2.06233882      -0.56640495
F       -2.32556740       0.15616349      -0.97605076
Cl       3.09403707      -0.04017608       0.17908853
C        0.85816762       1.53027618      -0.09662177
H        0.82920724       1.82735918       0.95630240
C        0.87124325      -0.76148509      -1.25663860
H       -0.22459018      -0.82654449      -1.27189543
H        1.20797363      -0.24194468      -2.15587323
H        1.34533161      -1.73869035      -1.20926970
N        0.77187496      -0.63089936       1.23733725
O        0.70984430       0.03975352       2.26688230
O        0.55842567      -1.83978923       1.16861896
N       -0.37192084       1.82314160      -0.79805158
H       -0.65985465       2.77583871      -0.59443997
H       -1.20992176       1.14674910      -0.74631290
