18
Properties=species:S:1:pos:R:3 Coordinates=T from=T ORCA-job=T run=T Energy:=T 204.4228535=T pbc="F F F"
C        0.12052983      -0.11269404       0.05792621
H        1.53093304       1.47965830       0.21357348
F       -1.23125643      -0.29898629       0.35102951
Cl       3.58650217       0.39714713      -0.68687531
C        0.44285629       1.37928423       0.07930651
C        0.43481100      -0.86360328      -1.20630093
H       -0.21969470      -0.46287392      -1.98007413
H        1.48721732      -0.76036535      -1.47671686
H        0.21559336      -1.91636630      -1.04788650
N        0.78918127      -0.75587615       1.26415011
O        0.84987039      -0.07446278       2.28197065
O        1.11916494      -1.93513252       1.17022476
C       -0.29223147       2.03972325       1.16168442
N       -0.94555066       2.64692619       1.92423841
C        0.02868188       2.04255823      -1.24885240
H        0.75383188       1.78390939      -2.02362805
H       -0.97789730       1.73147466      -1.54989169
H        0.02443721       3.13000926      -1.13295819
