15
Properties=species:S:1:pos:R:3 Coordinates=T from=T ORCA-job=T run=T Energy:=T 229.5283062=T pbc="F F F"
C        0.08120523      -0.18389909       0.01032308
H        1.75175791       1.13822252       0.09188857
Cl      -1.74885356       0.00173336      -0.12650478
Cl       3.47330763       2.16445858      -1.06580125
C        0.65877346       1.21582668       0.12462337
H        0.34654623       1.80892150      -0.74512438
C        0.59501558      -0.93296984      -1.20230144
H        0.74367785      -0.22781464      -2.02292158
H        1.55810894      -1.37892717      -0.96763967
H       -0.12535024      -1.70621054      -1.47286077
C        0.25780901      -0.92441503       1.25496087
N        0.30021438      -1.56292245       2.23826853
N        0.18086278       1.82795350       1.36421013
H        0.02037842       2.81091754       1.19112095
H        0.91002638       1.74901507       2.06327837
