16
Properties=species:S:1:pos:R:3 Coordinates=T from=T ORCA-job=T run=T Energy:=T 105.0290950=T pbc="F F F"
C        1.03148878       0.07413261       0.22968569
H        1.04505576       1.77528314      -1.10919225
F       -1.27379258       0.43529171      -2.33642234
H        2.04841168       0.06586204       0.65806652
C        0.59610589       1.55144428      -0.11815374
C        1.06015314      -0.76006241      -1.04677663
H        0.10308981      -0.70986558      -1.59569493
H        1.80073234      -0.31356810      -1.71371891
H        1.38483657      -1.77186266      -0.80615948
C        0.10274705      -0.53342900       1.18765862
N       -0.66380508      -1.12180805       1.85724713
C        1.22430445       2.48222747       0.83767918
N        1.71711224       3.18515797       1.64214291
N       -0.82991466       1.74457873      -0.19254055
H       -1.23556310       1.31919160       0.64185759
H       -1.14822229       1.19861625      -1.08236881
