15
Properties=species:S:1:pos:R:3 Coordinates=T from=T ORCA-job=T run=T Energy:=T 31.2759044=T pbc="F F F"
C        1.10284098      -0.03035121       0.12069842
H        0.69622007       1.87621327      -0.77778336
Br      -2.66955707       0.47311912      -1.16836428
Cl       2.88219146       0.32171332       0.33623565
C        0.35393418       1.28014150       0.06244695
H       -0.73081432       1.08037145      -0.03657216
C        0.90095333      -0.77867823      -1.19695579
H       -0.17378347      -0.90435490      -1.36080065
H        1.32643857      -0.20195785      -2.02410172
H        1.40270517      -1.74638797      -1.15567201
C        0.71209910      -0.89081944       1.24354470
N        0.49117711      -1.63166679       2.12824705
N        0.55004952       2.11928247       1.26719187
O        0.51061880       3.34011296       1.10371937
O        0.65198658       1.55143229       2.35342595
