16
Properties=species:S:1:pos:R:3 Coordinates=T from=T ORCA-job=T run=T Energy:=T 191.6698147=T pbc="F F F"
C        0.60454154      -0.12660354       0.21293247
H        1.86467356       1.58207345       0.00117086
Cl      -3.38605606       0.71099765      -2.07538830
Br       4.51362720       0.98834291      -0.81270268
C        0.78584080       1.40463672       0.15968096
C        0.44781275      -0.88232511      -1.09328739
H       -0.54591940      -0.69376845      -1.50426451
H        1.21596942      -0.52566277      -1.77884049
H        0.58220190      -1.94960880      -0.93377803
C        0.63553562      -0.85628913       1.45995088
N        0.66473808      -1.51805510       2.43594604
C        0.51184945       2.00846203       1.47902054
N        0.29135979       2.52156785       2.51612784
N        0.01970812       1.98782712      -0.94276992
H       -0.68300049       2.66236595      -0.63579181
H       -0.47593227       1.25224923      -1.44621647
