15
Properties=species:S:1:pos:R:3 Coordinates=T from=T ORCA-job=T run=T Energy:=T 86.6272677=T pbc="F F F"
C        1.24888807      -0.07764744      -0.02661937
H        1.03287685       1.83802725       0.88789066
Cl      -2.85046395       1.37241433      -1.17848552
Br       3.07236369       0.38274420      -0.75419638
C        0.48811512       1.24304132       0.14993935
H       -0.52107694       1.02645638       0.52294327
C        0.53545562      -0.97099450      -1.03140860
H       -0.46256552      -1.21902689      -0.66355579
H        0.41104207      -0.37454799      -1.93516531
H        1.09948444      -1.88047772      -1.22632069
C        1.52726716      -0.72511576       1.24734712
N        1.83140880      -1.23551172       2.26177398
N        0.41442072       1.93884201      -1.14029539
H        0.40538122       2.92981249      -0.93734955
H       -0.49359736       1.70442404      -1.53946779
