16
Properties=species:S:1:pos:R:3 Coordinates=T from=T ORCA-job=T run=T Energy:=T 189.2540985=T pbc="F F F"
C        0.63871920      -0.18535996      -0.06656479
H        1.56388204       1.70617401       0.43116440
Br      -3.17374208       1.05613327       2.02898836
Cl       5.22374036       1.78794879      -1.10833883
C        0.59317780       1.35310510       0.04199041
C        0.58463963      -0.94007594      -1.38248225
H       -0.35010570      -0.69253211      -1.89283807
H        1.43925983      -0.69844940      -2.02708893
H        0.58722124      -2.01519891      -1.19492109
C        0.94080708      -0.89132861       1.15770283
N        1.18151621      -1.48837462       2.14011084
N       -0.41551102       1.86405165       0.95187083
H       -0.02405267       1.95592789       1.89149427
H       -1.25955421       1.29923267       1.02871469
C        0.45423484       1.93574559      -1.30592847
N        0.46562745       2.39240058      -2.39022419
