15
Properties=species:S:1:pos:R:3 Coordinates=T from=T ORCA-job=T run=T Energy:=T 25.3089846=T pbc="F F F"
C        0.04225089      -0.07077070      -0.01089245
H        1.69870992       1.28146218      -0.09711589
F       -1.37220599       0.00224722      -0.11699380
Br       4.29766515       0.83699659      -0.98798674
C        0.60602451       1.34423430       0.00450289
H        0.38172500       1.76589616       0.99515473
C        0.56729126      -0.91765194      -1.15239935
H        0.24940837      -0.45218457      -2.08541868
H        1.65953420      -0.94406641      -1.13475775
H        0.15666913      -1.92470614      -1.08145164
C        0.26283663      -0.71549684       1.30110470
N        0.29161663      -1.23035294       2.35667170
N        0.04311537       2.10457085      -1.11551238
H        0.14137677       3.09605229      -0.92044775
H       -0.95025783       1.89012994      -1.15431759
