19
Properties=species:S:1:pos:R:3 Coordinates=T from=T ORCA-job=T run=T Energy:=T 53.9581757=T pbc="F F F"
C        0.59419845      -0.14472944      -0.14249285
H        1.70330158       1.63280854      -0.30613444
F       -1.71606687      -0.11240695      -0.41527895
Br       4.40075898       1.29435377       0.86984223
C        0.64749492       1.38452271      -0.10583214
C        0.57474386      -0.92409263      -1.44683121
H       -0.46335769      -0.89124051      -1.79570756
H        1.28299425      -0.49557457      -2.16430693
H        0.86526977      -1.97239490      -1.31070853
C        0.05978176      -0.84202615       1.01800298
N       -0.35132417      -1.40032622       1.97203612
C        0.28388565       1.88601420       1.28932031
H       -0.76226013       1.66649468       1.51363430
H        0.89789253       1.40310041       2.05529907
H        0.43044353       2.96935130       1.30310177
C       -0.24257318       2.05735012      -1.14935052
H        0.04346688       1.70807794      -2.14780243
H       -1.30367390       1.82003324      -0.97001905
H       -0.07183623       3.13641445      -1.08861215
