16
Properties=species:S:1:pos:R:3 Coordinates=T from=T ORCA-job=T run=T Energy:=T 183.7066316=T pbc="F F F"
C        1.14207444      -0.01255360      -0.06330542
H        1.62562775       1.97110544       0.44287042
F       -1.54189756       0.35786448       0.00112860
Cl       2.97053640      -0.01696627      -0.45036234
C        0.71294124       1.47742710       0.06450477
C        0.47483627      -0.79027276      -1.18612930
H       -0.61845394      -0.71365984      -0.98649574
H        0.77612890      -0.30575913      -2.11544671
H        0.82386839      -1.83003269      -1.16088588
C        0.98256522      -0.71698539       1.19936058
N        0.97651225      -1.34572977       2.20544546
C       -0.36147842       1.70749612       1.09368501
N       -0.97403445       2.21188102       1.96540451
N        0.33611613       1.94503846      -1.27949887
H        0.36109184       2.95770360      -1.27738200
H       -0.64984444       1.64961325      -1.37118306
