16
Properties=species:S:1:pos:R:3 Coordinates=T from=T ORCA-job=T run=T Energy:=T 265.7535743=T pbc="F F F"
C        0.08632131      -0.06193750      -0.03167405
H        1.68988356       1.32828516      -0.17165652
F       -1.32819704       0.02783900       0.02945949
Cl       3.87630600      -0.04963851       0.23929103
C        0.59419019       1.37933800      -0.10987202
H        0.32621504       1.88971639       0.82216277
C        0.45918984      -0.89342389      -1.25555043
H       -0.42659132      -1.38798781      -1.65082677
H        0.88825215      -0.28720403      -2.05400819
H        1.21455686      -1.63048442      -0.97993913
C        0.55146049      -0.70954985       1.25594831
H        1.64488466      -0.75538795       1.27558044
H        0.18525859      -0.12871524       2.10394818
H        0.14940419      -1.72102260       1.33107414
C       -0.01294635       2.10907092      -1.22792856
N       -0.50893817       2.71502233      -2.10455869
