19
Properties=species:S:1:pos:R:3 Coordinates=T from=T ORCA-job=T run=T Energy:=T 57.9186815=T pbc="F F F"
C        1.20405840       0.07155794       0.09961817
H        1.69740547       1.94380817      -0.85576304
Cl      -2.46955713      -1.98167748      -1.55287523
H        2.17638195      -0.11053675       0.55766754
C        1.00596923       1.58186367      -0.08267182
C        1.16910390      -0.64824557      -1.22265150
H        0.16339721      -0.59690359      -1.64945225
H        1.91603698      -0.27461238      -1.92808621
H        1.37039617      -1.69588861      -1.00783937
C        0.12482489      -0.56129262       0.93983117
H        0.43994090      -1.58420571       1.14320589
H       -0.03905724      -0.06202828       1.90341852
H       -0.80410174      -0.61235371       0.37016889
C        1.41281007       2.32790990       1.10430484
N        1.82437125       2.94685687       2.01846988
C       -0.41425837       1.91644166      -0.50105225
H       -0.62820636       1.45809482      -1.46834575
H       -1.11756302       1.49647716       0.21752216
H       -0.56195256       2.99856450      -0.57019964
