16
Properties=species:S:1:pos:R:3 Coordinates=T from=T ORCA-job=T run=T Energy:=T 62.5027954=T pbc="F F F"
C        0.05566351      -0.04165316      -0.02158138
H        1.80311773       1.05686938       0.06395372
Br      -1.94334760       0.07568420      -0.14878652
F        3.05251291       0.18641406       0.08616029
C        0.68427618       1.35187719       0.03609353
H        0.47296375       1.94616631      -0.85933960
C        0.58179466      -0.76794589      -1.25259065
H        0.16520217      -1.77815186      -1.30596217
H        0.31999191      -0.24085662      -2.17530017
H        1.67353490      -0.77805529      -1.11678822
C        0.44368802      -0.83024554       1.22341494
H        1.54455127      -0.78184713       1.24259566
H        0.00896229      -0.40001036       2.13036275
H        0.10745224      -1.87082877       1.14773289
C        0.33504474       2.10190814       1.22891955
N        0.05287134       2.70775531       2.19785537
