18
Properties=species:S:1:pos:R:3 Coordinates=T from=T ORCA-job=T run=T Energy:=T 191.0071061=T pbc="F F F"
C        0.61243185      -0.02467742       0.05347719
H        1.90931106       1.55452348      -0.31434122
Cl      -3.73249495       0.11402739      -0.79606374
Cl       4.10720852      -0.09124043      -0.86926957
C        0.84817879       1.47961891      -0.00566384
C        0.70091767      -0.85683836      -1.22361160
H       -0.30330146      -1.11457754      -1.58753858
H        1.22623950      -0.32789325      -2.01985639
H        1.29803611      -1.74420654      -1.00945909
C        0.51330659      -0.69109181       1.41083811
H        1.15556317      -0.22866081       2.17832741
H       -0.52299028      -0.63117854       1.75452707
H        0.81151077      -1.73847570       1.31522212
C        0.66434671       2.07217336       1.34304247
N        0.39821733       2.49563056       2.40616992
N       -0.01878693       2.15034737      -0.98071620
H       -0.44816940       2.97958474      -0.58781112
H       -0.79612504       1.57380460      -1.29725293
