20
Properties=species:S:1:pos:R:3 Coordinates=T from=T ORCA-job=T run=T Energy:=T 41.7409522=T pbc="F F F"
C        0.38413153      -0.11543330       0.06998671
H        1.78964384       1.40203864       0.02996626
Br      -3.79832777       0.15728255      -0.48183481
F        3.22115684       0.43110825       0.04483779
C        0.67579654       1.38615417       0.02783541
C        0.58313585      -0.83480667      -1.23606635
H        0.20802261      -1.85872053      -1.17117037
H        0.02597060      -0.30011032      -1.99999629
H        1.65541912      -0.83537490      -1.47045356
C        0.81306640      -0.85811085       1.31362876
H        1.89990675      -0.71055182       1.38721970
H        0.28973759      -0.47469822       2.19304657
H        0.55808154      -1.92043828       1.22175564
C        0.09160796       2.04820428       1.27455394
H       -0.98235133       1.83936623       1.34093098
H        0.55418508       1.66494558       2.18431859
H        0.20313273       3.13500450       1.24394716
N        0.17151312       1.96078241      -1.22903980
H        0.50083188       2.91740920      -1.27991765
H       -0.85030090       1.98780908      -1.19337869
