18
Properties=species:S:1:pos:R:3 Coordinates=T from=T ORCA-job=T run=T Energy:=T 76.9697180=T pbc="F F F"
C        0.02026852      -0.12273437       0.01618831
H        1.66624432       1.13880152       0.06386972
Cl      -1.81086151      -0.14542472      -0.00395251
F        2.96924431       0.39086627      -0.01275950
C        0.52056692       1.32856643       0.01548647
C        0.51618230      -0.80372886      -1.25318164
H        0.16210879      -1.83935837      -1.29343541
H        0.14312494      -0.25719850      -2.11850493
H        1.61340611      -0.76219034      -1.21970979
C        0.51235951      -0.85271999       1.25903676
H        1.60524451      -0.73948866       1.25623399
H        0.08235449      -0.41301318       2.16458329
H        0.22591652      -1.91244334       1.21809528
C        0.12506770       2.05719698       1.22925885
N       -0.17249924       2.64934751       2.20313537
N        0.20293537       2.02785293      -1.23032810
H        0.80720805       2.83663256      -1.30163647
H       -0.75225159       2.37695615      -1.21177970
