17
Properties=species:S:1:pos:R:3 Coordinates=T from=T ORCA-job=T run=T Energy:=T 178.3337841=T pbc="F F F"
C        0.71645433      -0.05784048       0.00162012
H        1.82246145       1.74245033       0.02650668
Cl      -2.22705997      -0.04925449      -0.03326808
F        2.73140249       0.01017931       0.02360741
C        0.75591345       1.47758948       0.00693166
C        0.66786678      -0.82739686      -1.29814674
H       -0.06169575      -1.64155153      -1.18707491
H        0.32640235      -0.18375563      -2.11888568
H        1.67174613      -1.20874546      -1.51671238
C        0.62995976      -0.83393388       1.29589421
H        1.63294058      -1.18864346       1.55997688
H        0.23157811      -0.20611871       2.10368596
H       -0.07088040      -1.66750459       1.14992598
C        0.13844715       2.05598733       1.19953635
N       -0.29733007       2.52037448       2.18872401
C        0.17639211       2.06586570      -1.20030866
N       -0.23141850       2.53354845      -2.19969280
