20
Properties=species:S:1:pos:R:3 Coordinates=T from=T ORCA-job=T run=T Energy:=T 51.2090515=T pbc="F F F"
C        1.20115514       0.06987471       0.12288547
H        1.60802942       2.04642253      -0.56522036
F       -1.89996549      -0.59209757      -0.84599249
H        2.24199523       0.09209139       0.46827499
C        0.77598738       1.53528219      -0.06324552
C        1.07541051      -0.65662001      -1.20847185
H       -0.00469798      -0.81737858      -1.33764615
H        1.45790304      -0.02783923      -2.02079220
H        1.62253628      -1.60816322      -1.18637335
C        0.31782350      -0.61301980       1.16399781
H        0.62073727      -1.66349331       1.26995399
H        0.39603114      -0.13535418       2.14880208
H       -0.71885358      -0.60712345       0.78784962
C        0.59043402       2.21757838       1.27731617
H       -0.33991390       1.88711280       1.72325106
H        1.40980501       1.98495297       1.96321960
H        0.56444451       3.30602058       1.16001899
N       -0.41583151       1.63185364      -0.89970505
H       -0.91327211       2.47943905      -0.65506993
H       -1.10511788       0.82215113      -0.86769288
