19
Properties=species:S:1:pos:R:3 Coordinates=T from=T ORCA-job=T run=T Energy:=T 68.4361568=T pbc="F F F"
C        0.81280285       0.20848770       0.10686191
H        1.46646268       2.11586722       0.83889102
Br      -2.75976724      -1.48996091       1.98824032
Br       4.19555192      -2.14241706      -1.64186767
C        0.63777462       1.71866899       0.24755005
C        0.38742493      -0.44306856      -1.18368560
H       -0.01515960       0.29302661      -1.87829143
H        1.23046794      -0.97957832      -1.61810066
H       -0.38389420      -1.17245921      -0.94277405
C        0.89274694      -0.63508475       1.37528886
H        1.89618017      -0.65063949       1.81534607
H        0.16169348      -0.32807029       2.12865491
H        0.61780215      -1.65893955       1.10873237
N       -0.59901781       2.20082001       0.78267479
H       -1.36583162       1.53727214       0.75044515
H       -0.85478636       3.02360346       0.23999532
N        0.97407946       2.33040864      -1.13340037
O        0.25699890       3.21116273      -1.62549442
O        2.02653077       1.92873062      -1.64097658
