15
Properties=species:S:1:pos:R:3 Coordinates=T from=T ORCA-job=T run=T Energy:=T 11.3378776=T pbc="F F F"
C        0.10941984       0.01253954      -0.00800879
H        1.83777230       1.14708718       0.02041074
Cl      -1.72504511       0.19969147      -0.04050350
F        3.27047709      -0.30485833       0.05061540
C        0.76307496       1.37824632       0.00037555
H        0.47175494       1.95180403       0.88372919
H        0.50381261       1.94717678      -0.89582818
C        0.57094337      -0.75034475      -1.23104906
H        0.13712464      -1.75288337      -1.25919979
H        0.30804162      -0.22126464      -2.15032685
H        1.66217198      -0.79864936      -1.10495628
C        0.52639496      -0.74356535       1.23533720
H        1.62144431      -0.79255559       1.14928741
H        0.23059185      -0.20965569       2.14177228
H        0.09180065      -1.74599823       1.25355469
