17
Properties=species:S:1:pos:R:3 Coordinates=T from=T ORCA-job=T run=T Energy:=T 42.7219547=T pbc="F F F"
C        0.17380387      -0.00310821       0.03562076
H       -0.13004725       1.96245645      -0.69013944
Br      -3.47747148      -0.86779525      -1.57366787
F        2.93160354       0.01336425       1.55302992
C        0.15608131       1.49988754       0.26066189
H       -0.65092285       1.72492490       0.96042603
C        1.11505329      -0.43717585      -1.05092868
H        0.85308874      -1.42305350      -1.43818547
H        1.05523114       0.29263465      -1.86123944
H        2.11564630      -0.44698918      -0.60660225
C        0.16593872      -0.83776839       1.28906516
H        1.20001950      -0.80736616       1.67399516
H       -0.52172232      -0.36133034       1.99401659
H       -0.16701040      -1.85623727       1.07104848
N        1.41158840       2.02870427       0.75501411
H        1.97668384       2.24895768      -0.05620699
H        1.96487566       1.30078441       1.25934205
