18
Properties=species:S:1:pos:R:3 Coordinates=T from=T ORCA-job=T run=T Energy:=T 83.1347519=T pbc="F F F"
C        0.99191416       0.00693256       0.13834205
H        1.78599115       1.67478316      -0.72022044
Br      -2.97218237      -1.61752958      -1.27648845
F        2.31573932      -0.28751199       0.61837567
C        0.98151416       1.53567876       0.00759821
C        0.88072780      -0.66950512      -1.19595055
H        1.09483669      -1.72390010      -1.02909416
H       -0.12044544      -0.59128922      -1.62837151
H        1.63794011      -0.25647726      -1.86673069
C        0.04336078      -0.56137382       1.14757686
H        0.22212726      -0.08227547       2.10750797
H       -1.00046834      -0.47731477       0.83368133
H        0.28930642      -1.61755606       1.22271383
N        1.28173848       2.14852586       1.31274910
H        1.60463384       3.09566453       1.14097094
H        2.07982695       1.61509499       1.65532092
C       -0.25089402       2.13583435      -0.53845858
N       -1.23177695       2.61803919      -0.97376249
