16
Properties=species:S:1:pos:R:3 Coordinates=T from=T ORCA-job=T run=T Energy:=T 136.8617828=T pbc="F F F"
C        1.15775165      -0.04750757       0.06396827
H        0.92007534       1.97473203      -0.74842168
Br      -2.78531195       0.08215452      -0.59636985
Br       3.13386199       0.10090979       0.20813151
C        0.55057334       1.36969124       0.08315266
H       -0.53897242       1.23496610      -0.04387083
C        0.80897346      -0.75552148      -1.23816460
H       -0.28511258      -0.81206515      -1.30098580
H        1.17757553      -0.23143552      -2.12445721
H        1.22875897      -1.76531453      -1.24298033
C        0.63945149      -0.86834855       1.23513678
H        0.91352302      -0.42442148       2.19186314
H       -0.45258067      -0.90129657       1.15805909
H        1.01706216      -1.89492517       1.19620768
C        0.80493088       2.11555997       1.31443262
N        1.01234978       2.71253237       2.30611855
