18
Properties=species:S:1:pos:R:3 Coordinates=T from=T ORCA-job=T run=T Energy:=T 16.6593485=T pbc="F F F"
C        0.37786656      -0.05948826       0.01710223
H        1.90419811       1.28481015       0.10379957
Cl      -4.22893693      -0.32885985      -0.41262138
F        3.39660424      -0.04806515       0.08390913
C        0.80452425       1.39469776       0.06831386
H        0.51909877       1.88147590      -0.87591842
C        0.79155261      -0.75131700      -1.26094863
H        0.40096393      -1.77282521      -1.28403942
H        0.41626150      -0.20722806      -2.13066990
H        1.88937814      -0.72528248      -1.20710159
C        0.70047736      -0.86866610       1.25346499
H        1.79599636      -0.82088348       1.32694209
H        0.20528578      -0.45779622       2.13327635
H        0.35529824      -1.89585484       1.12815239
C        0.21686726       2.16279086       1.25427027
H       -0.86666744       2.02234493       1.34275086
H        0.67761703       1.84922737       2.19210814
H        0.37386423       3.23759966       1.13164946
