17
Properties=species:S:1:pos:R:3 Coordinates=T from=T ORCA-job=T run=T Energy:=T 161.9207829=T pbc="F F F"
C        0.16042913      -0.06320875       0.03684843
H        1.52790213       1.53645034      -0.05006007
F       -1.23813096      -0.20997122       0.20785126
H        3.38952632      -0.64264443       0.04875465
C        0.43342869       1.45654468      -0.03498252
C        0.54611678      -0.78332253      -1.24499908
H       -0.01332332      -0.37158042      -2.08654074
H        1.63008301      -0.70027883      -1.37046644
H        0.28968385      -1.83711365      -1.13615742
N        0.81273503      -0.58633608       1.20249920
H        1.83478848      -0.58437499       0.97454570
H        0.54532680      -1.56641962       1.28985623
C       -0.04219707       2.03613826       1.23175316
N       -0.37282085       2.56817333       2.22324806
N       -0.08095087       2.21750562      -1.17791811
H       -0.45224585       3.11094567      -0.88570985
H       -0.74921130       1.72496263      -1.76125247
