15
Properties=species:S:1:pos:R:3 Coordinates=T from=T ORCA-job=T run=T Energy:=T 68.4730238=T pbc="F F F"
C        0.12351347      -0.14501908       0.06390266
H        1.58938389       1.29110270      -0.00752399
F       -1.27790841      -0.27551807       0.20654095
F        3.01200049       0.16450383       0.03255275
C        0.48162272       1.33718503       0.01065844
H        0.09068737       1.78914880      -0.90696882
C        0.53012040      -0.80422035      -1.24761458
H        0.01369241      -0.33399663      -2.09282252
H        1.61522422      -0.67681739      -1.31354309
H        0.26644376      -1.86471625      -1.20357486
N        0.77823591      -0.69798131       1.21347885
H        1.78845347      -0.52163020       0.98267713
H        0.61476534      -1.70192637       1.21406502
C       -0.04445316       2.04084267       1.16999135
N       -0.46862187       2.63869262       2.08794070
