14
Properties=species:S:1:pos:R:3 Coordinates=T from=T ORCA-job=T run=T Energy:=T 137.5808645=T pbc="F F F"
C        0.76044690      -0.05007569       0.10998719
H        1.78049158       1.63191708      -0.72860467
F       -1.58466393      -0.63597880      -1.08529755
F        1.83043499      -0.33497867       0.98109540
C        0.88423449       1.46143044      -0.13233922
H       -0.19375143      -0.27925467       0.57946402
N        0.91794042      -0.75660831      -1.11959628
H       -0.10597547      -0.82642782      -1.41463602
H        1.19785425      -1.70333874      -0.87410009
C        0.89311506       2.23466830       1.09548014
N        0.85021640       2.85842964       2.09026338
N       -0.23276450       1.98593557      -0.98827927
O       -1.25174350       2.39221528      -0.44086058
O       -0.03087527       1.93455637      -2.19475645
