12
Properties=species:S:1:pos:R:3 Coordinates=T from=T ORCA-job=T run=T Energy:=T 48.7713886=T pbc="F F F"
C        0.98042975      -0.07744273       0.12031312
H        1.00369873       1.89971374      -0.69043633
F       -1.57730061      -0.11929870      -1.18791868
Cl       2.68190569      -0.05989260       0.78883574
C        0.43189443       1.33823066       0.05198008
H        0.40741957      -0.62079301       0.88149137
H       -0.60430610       1.17674464      -0.32152388
N        0.93262557      -0.64824430      -1.18559825
H       -0.11208799      -0.56940559      -1.39000557
H        1.18562348      -1.62895237      -1.11320845
C        0.48440400       2.01579611       1.33542083
N        0.52748347       2.56454415       2.37458002
