14
Properties=species:S:1:pos:R:3 Coordinates=T from=T ORCA-job=T run=T Energy:=T 105.6951162=T pbc="F F F"
C       -0.02859231      -0.17519868       0.04514442
H        1.65284118       1.01234181       0.19591028
Cl      -1.85667587      -0.08319966       0.08345124
F        2.76249908      -0.24906249      -0.25067995
C        0.56444031       1.24513444       0.08900014
H        0.21821128      -0.68287871       0.97569576
N        0.39843973      -0.91507448      -1.10003785
H        1.44157462      -0.82632213      -0.98380579
H        0.12838890      -0.33546547      -1.89339112
C        0.05908835       1.98750411       1.25373000
N       -0.34766773       2.60937562       2.16721527
N        0.38125826       1.94032309      -1.18436877
H        0.80137387       2.85903025      -1.12957854
H       -0.60148968       2.04311230      -1.42247509
