14
Properties=species:S:1:pos:R:3 Coordinates=T from=T ORCA-job=T run=T Energy:=T 18.4140241=T pbc="F F F"
C        0.61101736      -0.17632493       0.19488281
H        1.94851989       1.29846890      -0.40335066
Cl      -3.96230775       0.63888569       0.27723317
F        2.87312314       0.12284249      -1.90218832
C        0.91482628       1.30548885      -0.02067750
H       -0.26348758      -0.39538946       0.86787923
H        0.85141349       1.79030066       0.96204589
N        0.85604528      -1.04472184      -0.85225439
H        0.97262589      -2.00621136      -0.51302671
H        1.79121241      -0.67078547      -1.33732557
C        0.06192711       2.01525691      -1.09309184
H        0.39427908       1.64618252      -2.06314261
H       -1.01522732       1.85983003      -1.00287724
H        0.18683272       3.10754701      -1.06694625
