13
Properties=species:S:1:pos:R:3 Coordinates=T from=T ORCA-job=T run=T Energy:=T 30.3169490=T pbc="F F F"
C        0.65919414       0.00267960       0.06139249
H        1.88366082       1.72677308      -0.28198512
F       -1.86841662      -0.61381803      -0.89395320
F        1.69483104      -0.44846605       0.91599280
C        0.84937283       1.49973596      -0.04634442
H       -0.29240388      -0.25990905       0.51239913
H        0.13194242       1.94504183      -0.73471970
N        0.73784976      -0.56660138      -1.24527928
H       -0.26337561      -0.80375648      -1.41683238
H        1.28925735      -1.41433500      -1.19776109
N        0.56449494       2.12766309       1.27700987
O       -0.60482485       2.09842498       1.65206808
O        1.48975765       2.64404744       1.89367282
