15
Properties=species:S:1:pos:R:3 Coordinates=T from=T ORCA-job=T run=T Energy:=T 88.7801503=T pbc="F F F"
C       -0.08826931      -0.07860170      -0.01621560
H        1.55603607       1.22429828       0.02052409
F       -1.48487477      -0.04811930       0.02441990
Cl       3.46857808      -0.31893974      -0.28845581
C        0.46266045       1.34425894      -0.02701454
H        0.21823174      -0.52504793       0.93538036
N        0.33956745      -0.78326445      -1.19172781
H        0.11804437      -1.76820257      -1.06982038
H        1.36236460      -0.70916371      -1.19487174
C        0.00764896       2.04721736       1.17951766
N       -0.35297376       2.62796689       2.13674688
C        0.07457626       2.13053057      -1.28407378
H        0.50469703       1.63589110      -2.15407685
H       -1.00993867       2.19612836      -1.40050986
H        0.47493151       3.14467789      -1.22737251
