16
Properties=species:S:1:pos:R:3 Coordinates=T from=T ORCA-job=T run=T Energy:=T 48.8299526=T pbc="F F F"
C       -0.13678993      -0.10207361      -0.07749669
H        1.57276138       1.02471549      -0.10552752
Cl      -1.95660929      -0.09160451      -0.26866408
H        2.88569330       0.17715464      -0.38645451
C        0.45689730       1.29210233      -0.09747875
H        0.01773354      -0.49337921       0.93137453
N        0.46563204      -0.89851451      -1.10784886
H        0.33688689      -1.87222750      -0.84874317
H        1.48063004      -0.66372731      -1.02291319
N        0.25933485       1.94722142       1.21280544
O       -0.07113053       3.14081967       1.26043295
O        0.51584288       1.27471595       2.22031036
C        0.08365298       2.17997155      -1.26279038
H        0.48768008       1.76563033      -2.18972184
H       -1.00179365       2.25043571      -1.36010378
H        0.50454813       3.17654954      -1.12847051
