13
Properties=species:S:1:pos:R:3 Coordinates=T from=T ORCA-job=T run=T Energy:=T 110.5120698=T pbc="F F F"
C        0.83760618      -0.02830051       0.04864773
H        1.89092260       1.71909682      -0.36524502
Br      -2.51360395      -1.30334899      -0.02947151
F        2.02219994      -0.29577335       0.75908780
C        0.85116341       1.50581616      -0.09059117
H       -0.01843835      -0.38733124       0.61273765
N        0.90434218      -0.55744974      -1.27250388
H       -0.03924736      -0.84168797      -1.52451231
H        1.50288996      -1.36785555      -1.28583258
C        0.56757224       2.15904621       1.18580493
N        0.39974656       2.69909632       2.21562620
C        0.02204090       2.04902003      -1.17252578
N       -0.51824432       2.58247180      -2.07070206
