14
Properties=species:S:1:pos:R:3 Coordinates=T from=T ORCA-job=T run=T Energy:=T 171.0956513=T pbc="F F F"
C        1.18606977      -0.01788857      -0.04761537
H        1.49784399       2.05290547       0.10454706
F       -1.29932588      -0.11731284      -0.16696408
F        2.57782930       0.01510488       0.14875286
C        0.63149606       1.39682505      -0.03690222
H       -0.06435291       1.46171690       0.78684328
N        0.90344485      -0.73007553      -1.20706409
H       -0.07361550      -0.49877598      -1.38983575
H        0.93311441      -1.70537937      -0.96528241
N        0.74000754      -0.75038559       1.23176211
O        0.66380969      -0.11303894       2.27948422
O        0.63486495      -1.97364311       1.14537047
C       -0.09223349       1.78568161      -1.25473034
N       -0.59137277       2.25872602      -2.20755575
