15
Properties=species:S:1:pos:R:3 Coordinates=T from=T ORCA-job=T run=T Energy:=T 121.9061247=T pbc="F F F"
C        0.02892458      -0.13392293       0.00370827
H        1.58738222       1.26446414       0.21238305
Cl      -1.76733814      -0.29280192       0.22038222
F        2.72625687       0.07381445      -0.47656509
C        0.47280258       1.34281327       0.11105585
N        0.46402350      -0.69454844      -1.18505071
H        0.30168792      -1.69148073      -1.15419547
H        1.52432240      -0.47695052      -1.13372331
N        0.60002315      -0.89687656       1.23219511
O        0.67342021      -0.29748705       2.29769755
O        0.87318725      -2.07929684       1.05656220
C       -0.15864233       2.12556398       1.18132709
N       -0.64106587       2.85091921       1.97290499
C        0.23695284       1.98923719      -1.19044111
N        0.16744282       2.52041274      -2.23763065
