19
Properties=species:S:1:pos:R:3 Coordinates=T from=T ORCA-job=T run=T Energy:=T 80.4731962=T pbc="F F F"
C        1.24997823       0.07798394       0.14466530
H        1.57677896       1.93051290      -0.61772976
Br      -3.62121712      -0.26294968      -1.05375676
F        2.34416609       0.07252189       1.00968597
C        0.74672682       1.51313754      -0.04722716
N        1.56223135      -0.53928235      -1.06449408
H        0.74977559      -1.04881342      -1.39288644
H        2.34801426      -1.15665596      -0.97395152
N        0.22795899      -0.74137549       0.92952950
O       -0.38188847      -0.16029894       1.82152823
O        0.17569101      -1.94962268       0.69478078
C        0.66455197       2.31872147       1.25259176
H       -0.25059183       2.16270859       1.81037457
H        1.52259058       2.05211387       1.87193098
H        0.73256316       3.38551513       1.01484195
C       -0.51233441       1.54994091      -0.92374818
H       -0.23058719       1.30121621      -1.94572132
H       -1.31048248       0.84769082      -0.66107989
H       -0.93006551       2.55944525      -0.91850392
