15
Properties=species:S:1:pos:R:3 Coordinates=T from=T ORCA-job=T run=T Energy:=T 86.4164350=T pbc="F F F"
C        0.06235567      -0.11921350       0.47957055
H        1.31404357       1.12709060       1.75839531
F       -1.10374134      -0.02393310       1.23094685
H        2.87227110       0.95002873      -1.02047957
C        0.93764006       1.06284072       0.74028620
H        1.82930124       1.03677576      -0.04338691
N       -0.25746352      -0.27459414      -0.86080330
H       -0.43837899      -1.24175321      -1.09117552
H        0.50456702       0.07734843      -1.43322358
N        0.70147429      -1.40420312       1.11760881
O        0.36119486      -2.48304847       0.62667934
O        1.34665959      -1.28232724       2.15728832
N        0.12375854       2.26198202       0.48713677
O       -0.50583028       2.32083064      -0.56926316
O        0.12707821       3.15964588       1.33528988
