13
Properties=species:S:1:pos:R:3 Coordinates=T from=T ORCA-job=T run=T Energy:=T 51.3929032=T pbc="F F F"
C        1.11245634      -0.03974431      -0.16769730
H        0.92563570       1.91322031       0.76812555
F       -1.79615256      -0.16767947       0.15666676
F        2.45429491       0.08213149      -0.58494545
C        0.46893566       1.33864787      -0.04838462
H       -0.59816991       1.06970342       0.15472620
N        0.37919755      -0.80474040      -1.10378199
H       -0.61749433      -0.72930160      -0.74415230
H        0.70697629      -1.76299659      -1.06912679
C        1.24439445      -0.65706978       1.19164974
N        1.44749568      -1.16876226       2.22979504
C        0.60220016       2.06438208      -1.30379935
N        0.69317006       2.68654923      -2.29799549
