13
Properties=species:S:1:pos:R:3 Coordinates=T from=T ORCA-job=T run=T Energy:=T 92.5068918=T pbc="F F F"
C        0.00430273      -0.08578846       0.00568646
H        1.70799042       1.16027688       0.13532599
Cl      -1.80002988       0.11986785      -0.22919584
Cl       3.63381536       0.02832723      -0.71395104
C        0.61975953       1.31485607       0.11654697
H        0.36555799       1.85212815      -0.79960357
N        0.53466328      -0.71424515      -1.15783815
H        0.30634869      -1.70006134      -1.19112308
H        1.55904433      -0.60623922      -1.13217189
C        0.14001134      -0.81774009       1.28277633
N        0.14588323      -1.44506782       2.27674024
C        0.14152516       2.04090507       1.28355031
N       -0.26489219       2.61782084       2.22215728
