13
Properties=species:S:1:pos:R:3 Coordinates=T from=T ORCA-job=T run=T Energy:=T 82.2108483=T pbc="F F F"
C        0.37162253      -0.04266635       0.08317538
H        1.96551162       1.26513485      -0.11016248
Br      -3.64291277      -0.39245754      -0.03305423
F        3.00933556      -0.17780832      -1.31654386
C        0.88417838       1.40184402       0.05192168
H        0.64961927       1.96168310       0.96778798
N        0.66897609      -0.74751851      -1.04776840
H        0.46518748      -1.73429769      -0.91819767
H        1.80027677      -0.55411371      -1.22184152
C        0.39016812      -0.68592684       1.39672604
N        0.49370709      -1.27641615       2.41085292
C        0.31969754       2.08615587      -1.11997254
N       -0.07076768       2.69862727      -2.04673329
