15
Properties=species:S:1:pos:R:3 Coordinates=T from=T ORCA-job=T run=T Energy:=T 115.7522709=T pbc="F F F"
C        0.00666564      -0.08988312       0.03405707
H        1.65307630       1.17085581       0.09911607
Cl      -1.81790510      -0.07647303       0.16416736
F        2.70723176      -0.09350765      -0.16606610
C        0.53581135       1.35206322       0.02207666
N        0.40164006      -0.67083867      -1.21129257
H        0.09519700      -1.63642372      -1.22311532
H        1.44432763      -0.63366750      -1.10189277
C        0.48765612      -0.88737506       1.18404374
N        0.78938078      -1.68328279       1.99643468
N        0.04644714       2.14808720       1.19624729
O       -0.63885734       3.14819565       0.98809976
O        0.37513029       1.71876749       2.29872151
C        0.23180121       2.03144570      -1.22006240
N        0.14753716       2.60973647      -2.24023498
