16
Properties=species:S:1:pos:R:3 Coordinates=T from=T ORCA-job=T run=T Energy:=T 97.7540370=T pbc="F F F"
C        0.05200903      -0.12671544      -0.00734667
H        1.60695368       1.26685421      -0.01359238
Cl      -1.79390557      -0.22644426      -0.00229196
F        2.85097986      -0.08230203      -0.52595660
C        0.49717351       1.35098377       0.03664579
N        0.52813270      -0.72599415      -1.20512077
H        0.28642591      -1.71144396      -1.18023271
H        1.60494301      -0.57711998      -1.08884661
C        0.45608124      -0.83740504       1.23235979
N        0.71131212      -1.46439964       2.19380628
C        0.02166048       2.11575138       1.27400017
H       -1.06558598       2.06174440       1.38598489
H        0.50029456       1.69061938       2.15651719
H        0.32062418       3.16429858       1.19493375
C        0.03047660       2.00636816      -1.18300858
N       -0.30874535       2.59210462      -2.14598158
