15
Properties=species:S:1:pos:R:3 Coordinates=T from=T ORCA-job=T run=T Energy:=T 40.0110606=T pbc="F F F"
C        1.10832982      -0.16193097      -0.14368706
H        1.07058141       1.86515487       0.73421412
Br      -2.61006820      -0.21565395       0.91945409
H        2.14058622      -0.12469778      -0.51939015
C        0.56969683       1.29926860      -0.06174590
H       -0.50340546       1.25764766       0.16710234
N        0.33351177      -1.02283796      -1.02248946
H        0.29530474      -0.63878177      -1.96267316
H       -0.62213490      -1.09783006      -0.67428211
C        1.16590314      -0.77264766       1.25917070
H        1.89922900      -0.25893781       1.89472314
H        0.17687574      -0.73212008       1.72510117
H        1.45819494      -1.82202239       1.16971762
C        0.78151018       2.02856134      -1.31459391
N        0.97708478       2.60397795      -2.32278142
