18
Properties=species:S:1:pos:R:3 Coordinates=T from=T ORCA-job=T run=T Energy:=T 174.2648460=T pbc="F F F"
C        1.12382767      -0.07084472       0.05223988
H        1.96332682       1.78439183      -0.59575238
F       -1.81449904      -0.66442559      -0.86861712
H        2.17000659      -0.27184168       0.32450197
C        1.04219602       1.47486250      -0.07329309
N        0.77370364      -0.66071892      -1.24136803
H       -0.29198030      -0.72622710      -1.26527169
H        1.11730175      -1.62669756      -1.26200531
C        0.28858715      -0.62898468       1.21087240
H        0.41137461      -0.02376214       2.11253536
H       -0.76051046      -0.68534957       0.90389466
H        0.65045717      -1.64096340       1.42069627
C        1.10823000       2.11751962       1.23592038
N        1.22705243       2.72520097       2.23669409
C       -0.17606642       1.91333163      -0.90063255
H        0.12954803       1.78190411      -1.93836486
H       -1.03810747       1.23982389      -0.77392960
H       -0.43855817       2.96395079      -0.73277038
