18
Properties=species:S:1:pos:R:3 Coordinates=T from=T ORCA-job=T run=T Energy:=T 76.3736698=T pbc="F F F"
C        1.12804293      -0.04305563       0.26888776
H        1.52102602       1.64991609      -0.93078461
F       -1.56026830      -0.41576682      -1.27494887
H        2.14858809      -0.07320798       0.65657226
C        0.90218643       1.46296285      -0.04149987
N        1.11629299      -0.79018435      -0.99180114
H        0.13282357      -0.78353490      -1.33654991
H        1.35759374      -1.75901201      -0.78764543
C        0.17346282      -0.61950615       1.33657724
H        0.51523310      -1.62312735       1.62539897
H        0.11374269      -0.02571438       2.25865010
H       -0.81989839      -0.69475019       0.88220038
N        1.47217694       2.27348480       1.02782161
H        0.78325146       2.39366506       1.76665018
H        1.64745355       3.19700545       0.65160291
N       -0.50619397       1.79323862      -0.28039480
H       -1.03357328       1.02529149      -0.78282591
H       -0.53164037       2.62119539      -0.86522089
