16
Properties=species:S:1:pos:R:3 Coordinates=T from=T ORCA-job=T run=T Energy:=T 54.3486882=T pbc="F F F"
C       -0.03314417      -0.06503786      -0.23533317
H        0.05297424       1.84342028      -1.06150926
F       -1.11532269      -0.36353637      -1.11960756
F        2.35118561      -0.74339720       1.50115859
C       -0.14719352       1.45057561      -0.06556941
H       -1.19709022       1.62316681       0.16385135
N        1.18835566      -0.39300064      -0.91075038
H        1.08750219      -1.31068823      -1.32750953
H        1.88585436      -0.49597049      -0.14420563
N       -0.28179986      -0.72081724       1.01308417
H        0.65877166      -0.77972771       1.46226481
H       -0.56759502      -1.67536437       0.81920452
C        0.76928835       2.04047265       1.00320851
H        0.43134212       1.74159889       1.99912754
H        1.79627133       1.66104342       0.93473965
H        0.77897995       3.13569244       0.93255580
