18
Properties=species:S:1:pos:R:3 Coordinates=T from=T ORCA-job=T run=T Energy:=T 104.0450877=T pbc="F F F"
C        0.14121993      -0.01829359      -0.04038389
H        1.53937205       1.59579328      -0.24347814
F       -1.26072516      -0.07130718      -0.20161123
H        3.07229322      -1.37787610      -0.11994511
C        0.48421394       1.47165818      -0.01428317
N        0.73909871      -0.62726103      -1.17698734
H        0.33787361      -1.55752726      -1.25153544
H        1.74015320      -0.79504733      -0.88510306
N        0.50298723      -0.58367138       1.23910014
H        1.43699703      -0.99131530       1.09287789
H       -0.12823538      -1.34353345       1.46006165
C        0.11478831       2.15489794       1.28213459
H       -0.93273614       2.01853282       1.54418722
H        0.70687508       1.71171259       2.07728541
H        0.34040562       3.22148903       1.20923307
N       -0.20954386       2.06346830      -1.20162117
O       -1.10469465       2.87955496      -1.00639909
O        0.20305726       1.73285553      -2.30710234
