13
Coordinates from ORCA-job run	Energy:      36.9297520
C          0.99693        0.03564        0.04239
H          1.83197        1.96304       -0.50991
Br        -2.78270       -0.60592       -0.51145
Cl         2.39902       -0.43008        1.04400
C          0.87615        1.56225       -0.10274
H          1.14066       -0.43022       -0.95547
H          0.07291       -0.38096        0.49589
N          0.61670        2.17852        1.20518
H          0.58296        3.21779        1.09120
H          1.40318        1.97488        1.86173
N         -0.19155        1.88450       -1.04099
O         -1.13139        2.54081       -0.70340
O         -0.11867        1.51082       -2.17319
