13
Coordinates from ORCA-job run	Energy:      33.3863654
C          0.98198        0.03368        0.13675
H          1.87374        1.90329       -0.49756
Br        -2.72141       -0.72427       -0.64471
F          2.02844       -0.28048        0.98524
C          0.90385        1.55181       -0.08021
H          1.15235       -0.48471       -0.83134
H          0.03454       -0.33988        0.57931
N          0.66380        2.22392        1.20226
H          0.67018        3.25864        1.04970
H          1.44305        2.00766        1.86405
N         -0.15159        1.86257       -1.03349
O         -1.07362        2.55820       -0.72630
O         -0.08837        1.43836       -2.14838
