14
Coordinates from ORCA-job run	Energy:      26.1763934
C          0.24459       -0.07585       -0.24752
H          1.59264        1.59849       -0.36464
F         -1.09680       -0.35577       -0.05191
F          3.08883        0.09042        1.80757
C          0.50526        1.43524       -0.19662
H          0.55457       -0.47712       -1.23568
H          0.83513       -0.59450        0.53677
C          0.13342        2.01721        1.17384
H         -0.94823        1.87529        1.38299
H          0.72072        1.52029        1.97473
H          0.36125        3.10380        1.19896
N         -0.23440        2.10982       -1.26474
H          0.00120        3.12981       -1.26663
H         -1.26458        2.00171       -1.11651
