10
Coordinates from ORCA-job run	Energy:      27.0172989
C          0.15674       -0.09499       -0.02983
H          1.62271        1.43452       -0.16538
F         -1.20731       -0.23982        0.13991
F          3.27015        0.14824        0.28202
C          0.55122        1.36929       -0.07606
H          0.47744       -0.60356       -0.96196
H          0.68434       -0.56239        0.82896
H          0.28712        1.89299        0.85981
C          0.04036        2.07987       -1.24307
N         -0.33700        2.67493       -2.15584
