13
Coordinates from ORCA-job run	Energy:      34.5690147
C          0.11060       -0.01361       -0.03407
H          1.61901        1.52721        0.07305
F         -1.26678       -0.14622       -0.07357
Cl         3.58664       -0.88920        0.00944
C          0.50908        1.46637        0.03318
H          0.54574       -0.47999       -0.94340
H          0.49790       -0.55486        0.85431
N         -0.03331        2.08739        1.23513
O         -0.77153        3.02391        1.16515
O          0.28345        1.67373        2.30956
N          0.05993        2.15439       -1.18260
H          0.38707        3.14735       -1.16516
H         -0.98419        2.14140       -1.24909
