14
Coordinates from ORCA-job run	Energy:      29.1949237
C          1.06194        0.09839       -0.10341
H          1.77505        2.12691       -0.29409
F         -2.49545       -0.56855       -0.03600
Br         2.48683       -0.43402        1.10412
C          0.81422        1.61383       -0.07210
H          1.37287       -0.20198       -1.12658
H          0.13612       -0.45628        0.15663
C          0.30499        2.08162        1.30080
H         -0.66052        1.58831        1.54609
H          1.03913        1.84681        2.09836
H          0.14909        3.18161        1.29244
N         -0.14689        1.97336       -1.11557
H         -0.25817        3.01299       -1.15078
H         -1.07943        1.54241       -0.91834
