15
Coordinates from ORCA-job run	Energy:       5.2706826
C          0.45855       -0.01098        0.01389
H          1.74824        1.70766       -0.21357
Cl        -2.85856       -0.90410       -0.70071
F          3.74318       -0.08798        1.01593
C          0.66446        1.50123       -0.06926
H          0.80603       -0.50425       -0.91912
H          1.02064       -0.43819        0.87144
C          0.20746        2.16460        1.23331
H         -0.87267        1.97407        1.41307
H          0.78933        1.76540        2.09174
H          0.37498        3.26206        1.18315
C         -0.10916        2.07144       -1.26029
H          0.24169        1.60418       -2.20537
H         -1.19832        1.88007       -1.14962
H          0.05580        3.16788       -1.33501
