13
Coordinates from ORCA-job run	Energy:      38.1086710
C          0.76314        0.28596        0.45832
H          1.51458        1.76274       -0.93962
Br        -1.58240       -1.30388       -2.59925
F          2.02054       -0.08028        0.90460
C          0.78938        1.72015       -0.09704
H          0.45397       -0.42159       -0.33911
H          0.04305        0.20782        1.30005
N          1.21517        2.67386        0.92831
H          2.19123        2.45668        1.23279
H          0.58191        2.61625        1.75897
N         -0.52769        2.10682       -0.60327
H         -1.24046        2.03985        0.16039
H         -0.80828        1.46828       -1.38139
