13
Coordinates from ORCA-job run	Energy:      38.1719727
C          0.25247       -0.06412       -0.05836
H          1.58376        1.61222       -0.16733
Br        -1.64420       -0.55385       -0.14684
Cl         3.30912       -0.22229        0.40706
C          0.49333        1.44997       -0.07090
H          0.80732       -0.53565       -0.90612
H          0.69532       -0.48836        0.86931
C          0.05436        2.10515        1.23743
H         -1.00875        1.89585        1.45445
H          0.67524        1.70482        2.06473
H          0.20005        3.20263        1.20497
C         -0.13232        2.09745       -1.23003
N         -0.61624        2.63067       -2.13719
