10
Coordinates from ORCA-job run	Energy:       6.0399386
C          0.14413       -0.02871       -0.07141
H          1.69353        1.46936       -0.36942
Cl        -1.58181       -0.13972        0.36979
Br         3.73950       -0.29796        0.60579
C          0.60779        1.42801       -0.15537
H          0.32317       -0.55068       -1.03765
H          0.71710       -0.55469        0.72057
H          0.41477        1.94256        0.81097
C         -0.05473        2.14631       -1.24692
N         -0.57174        2.72300       -2.10599
