16
Coordinates from ORCA-job run	Energy:      47.3550866
C          0.87174       -0.03855       -0.05289
H          1.73441        1.91382        0.44002
Cl        -2.70338       -0.51153        0.89217
H          1.64560       -0.28063       -0.81428
C          0.76644        1.50399        0.07319
H         -0.10088       -0.43178       -0.41849
N          1.23422       -0.72987        1.17433
O          1.49169       -0.13552        2.17724
O          1.32030       -1.92083        1.16617
N         -0.31741        1.89628        0.98115
H         -0.38060        2.94083        1.01182
H         -0.11735        1.59030        1.95760
C          0.48599        2.09899       -1.31398
H          1.29762        1.83262       -2.02321
H         -0.47939        1.71685       -1.71050
H          0.42925        3.20708       -1.25321
