15
Coordinates from ORCA-job run	Energy:     118.4342042
C          0.16481       -0.11988        0.25811
H          1.54851        1.58986        0.54966
Cl        -1.56753       -0.50313        0.52008
Cl         3.08224       -0.14406       -0.89696
C          0.49678        1.41854        0.22645
H          0.41725       -0.55315       -0.73267
N          0.94823       -0.84013        1.25545
O          1.45790       -0.26609        2.17667
O          1.08720       -2.01804        1.15695
C         -0.41793        2.22733        1.13703
H         -1.45163        2.20105        0.72839
H         -0.41172        1.80517        2.15872
H         -0.08949        3.28680        1.16854
C          0.40546        1.98491       -1.12844
N          0.34812        2.46932       -2.18485
