15
Coordinates from ORCA-job run	Energy:     130.7281834
C          0.07530       -0.08585        0.17980
H          1.45712        1.54629        0.46262
Br        -1.80765       -0.49784        0.41816
F          2.59936       -0.01179       -0.61584
C          0.40186        1.44035        0.18610
H          0.38884       -0.48892       -0.81918
N          0.84871       -0.80356        1.17982
O          1.22994       -0.25919        2.17179
O          1.05412       -1.97121        1.03857
C         -0.38658        2.20032        1.16752
N         -0.96091        2.86939        1.91837
C          0.27340        2.03734       -1.21415
H          1.01303        1.50761       -1.85381
H         -0.74373        1.91275       -1.63085
H          0.53763        3.11585       -1.21735
