16
Coordinates from ORCA-job run	Energy:      56.0060240
C          0.17776       -0.08454        0.09919
H          1.53790        1.60049        0.25515
Cl        -1.56983       -0.44391       -0.08478
Cl         3.84196       -0.32657       -0.37641
C          0.44452        1.44962        0.11449
H          0.69442       -0.50128       -0.79375
N          0.69644       -0.78890        1.26492
O          1.28444       -0.21448        2.13105
O          0.59180       -1.97660        1.32444
C         -0.29566        2.19775        1.24147
H         -1.39521        2.09446        1.13243
H         -0.00603        1.82879        2.24426
H         -0.04344        3.27853        1.20014
N          0.08550        2.02533       -1.18471
H          0.37554        3.02991       -1.21775
H         -0.94713        1.97720       -1.34075
