13
Coordinates from ORCA-job run	Energy:      97.7761435
C          0.94853        0.01617        0.12467
H          1.81487        1.96666        0.39908
Br        -2.28047       -0.24368       -0.69677
Br         2.47343       -0.52440       -0.93967
C          0.82300        1.53055        0.17693
H          0.08791       -0.38636       -0.38092
C          0.99854       -0.59142        1.45066
N          1.04208       -1.10475        2.48465
C         -0.09752        1.98164        1.25493
N         -0.80413        2.38130        2.08144
N          0.40697        2.02234       -1.13145
H          0.23535        3.04671       -1.08864
H         -0.50298        1.58518       -1.36656
