13
Coordinates from ORCA-job run	Energy:      97.3388201
C          0.24585       -0.04142       -0.01237
H          1.71916        1.66277       -0.06450
Br        -1.66690       -0.34809       -0.18274
H          2.84679       -0.12282        0.37339
C          0.62376        1.48273       -0.04114
H          0.76994       -0.51370       -0.86968
C          0.57785       -0.78987        1.21638
N          0.77410       -1.42406        2.16624
C          0.19412        2.15957        1.18875
N         -0.12212        2.66601        2.17088
N          0.07599        2.13299       -1.23685
H         -0.12228        3.14679       -1.06171
H         -0.84122        1.72512       -1.50340
