14
Coordinates from ORCA-job run	Energy:     135.8636551
C          1.04561       -0.03109       -0.00145
H          1.71748        1.97073        0.12317
Br        -2.08695       -0.48188       -0.02605
Cl         2.77139       -0.26203       -0.41539
C          0.74042        1.50146        0.04266
H          0.46367       -0.55321       -0.79777
C          0.86300       -0.68580        1.30961
N          0.75405       -1.17006        2.35646
C         -0.05695        2.04600        1.24822
H         -1.12446        1.76263        1.22439
H          0.38635        1.68585        2.20062
H          0.01510        3.15862        1.26124
C          0.16033        2.00661       -1.21491
N         -0.29257        2.42976       -2.19298
