15
Coordinates from ORCA-job run	Energy:      29.2931650
C          1.11598        0.07299        0.26228
H          1.81339        1.91768       -0.62629
Cl        -1.62551       -1.50422       -1.83922
F          2.33139       -0.15896        0.88128
C          0.94856        1.58251       -0.01188
H          1.11467       -0.48018       -0.70108
C          0.04372       -0.46040        1.11658
N         -0.79835       -0.88122        1.78997
N          0.93367        2.33874        1.24262
H          0.87463        3.36143        1.03289
H          1.82793        2.17977        1.75868
C         -0.32780        1.87339       -0.81303
H         -0.30400        1.32875       -1.78103
H         -1.23329        1.56701       -0.24778
H         -0.40205        2.96051       -1.03163
