14
Coordinates from ORCA-job run	Energy:     121.1582369
C          0.94031       -0.05649       -0.03812
H          1.76425        1.88480        0.20194
Cl        -2.05743       -0.24373        0.30385
F          2.22581       -0.28014       -0.51263
C          0.75055        1.48714        0.06021
H          0.27195       -0.51601       -0.79210
C          0.85832       -0.76597        1.24691
N          0.80533       -1.36124        2.24257
C          0.01362        2.05692        1.21222
N         -0.54017        2.58701        2.08180
C          0.17105        2.04280       -1.24388
H          0.79329        1.70276       -2.09378
H         -0.87450        1.69241       -1.40404
H          0.15938        3.15303       -1.22805
