12
Coordinates from ORCA-job run	Energy:      18.3719584
C          0.07257       -0.04315        0.12575
H          1.53848        1.55773        0.24123
Br        -1.84891       -0.29837       -0.00729
Br         3.75312       -0.45917       -0.75313
C          0.44453        1.45098        0.06882
H          0.57359       -0.58993       -0.70021
H         -0.08885        1.98736        0.88458
C          0.52389       -0.62489        1.39536
N          0.88333       -1.08499        2.39438
N          0.12722        2.07906       -1.20348
O          0.37292        3.23693       -1.36040
O         -0.34428        1.45642       -2.10648
