16
Coordinates from ORCA-job run	Energy:     117.2716885
C          0.97078       -0.05039       -0.03672
H          1.76066        1.92897        0.13863
F         -1.75687       -0.20403        0.40382
F          2.22741       -0.27583       -0.54839
C          0.75832        1.51086        0.03283
H          0.25510       -0.55449       -0.73692
C          0.93257       -0.73872        1.27469
N          0.84885       -1.25391        2.30667
C         -0.04794        2.07478        1.23038
H         -1.13357        1.87582        1.19494
H          0.35600        1.69221        2.19298
H          0.07297        3.17784        1.25050
C          0.10706        1.99443       -1.28521
H          0.67713        1.60388       -2.15329
H         -0.94007        1.62074       -1.35713
H          0.08584        3.09789       -1.32420
