14
Coordinates from ORCA-job run	Energy:      55.4184914
C          0.05350       -0.05333        0.17508
H          1.58346        1.55473        0.33540
Cl        -1.71019       -0.22942        0.31909
Cl         3.03370       -0.36738       -0.77390
C          0.49048        1.45134        0.16032
H          0.36737       -0.51830       -0.78958
C          0.66593       -0.81907        1.27376
N          1.17953       -1.41262        2.12469
C         -0.17030        2.26188        1.19635
N         -0.71828        2.89121        1.99685
C          0.19243        2.03878       -1.21682
H          0.82724        1.52830       -1.97416
H         -0.87402        1.88665       -1.48311
H          0.42630        3.12297       -1.25295
