14
Coordinates from ORCA-job run	Energy:     160.1678968
C          1.06138       -0.02586        0.01133
H          1.67128        1.99234        0.04175
Cl        -1.90559       -0.32713       -0.11544
Cl         2.81667       -0.23887       -0.28343
C          0.71148        1.49352        0.03260
H          0.57843       -0.52979       -0.85452
C          0.75364       -0.71326        1.28045
N          0.56207       -1.19935        2.31333
C         -0.01746        2.04834        1.28298
H         -1.05333        1.68542        1.38078
H          0.54877        1.75649        2.19156
H         -0.03086        3.15769        1.23983
C          0.07045        1.93879       -1.22032
N         -0.42865        2.32391       -2.19186
