14
Coordinates from ORCA-job run	Energy:     165.5246375
C          1.07057        0.03737        0.04300
H          1.70778        2.05724       -0.10866
F         -1.35486       -0.74340       -0.36477
H          2.15694       -0.06261       -0.02730
C          0.75499        1.54290        0.01424
H          0.75685       -0.41237       -0.93188
C          0.58558       -0.67214        1.28035
N          0.17056       -1.17573        2.24219
C          0.12869        2.06400        1.30621
H         -0.82912        1.53820        1.52343
H          0.83717        1.88172        2.14426
H         -0.03902        3.15056        1.22189
C         -0.04380        1.92180       -1.17095
N         -0.64315        2.20454       -2.12203
