16
Coordinates from ORCA-job run	Energy:      22.2483413
C          0.90336       -0.05320        0.15597
H          1.80578        1.92500        0.34662
F         -2.74093       -0.09297       -0.58676
Cl         2.05838       -0.64933       -1.06987
C          0.80085        1.49401        0.13903
H         -0.09058       -0.50046       -0.05745
C          1.36222       -0.55058        1.46106
N          1.72163       -0.94375        2.48827
C         -0.17334        2.00560        1.21581
H         -1.19457        1.60262        1.04559
H          0.16251        1.70669        2.23077
H         -0.22083        3.11553        1.19469
C          0.33440        2.00514       -1.23444
H          1.04395        1.70913       -2.03390
H         -0.67062        1.60062       -1.48320
H          0.27970        3.11402       -1.23314
