12
Coordinates from ORCA-job run	Energy:      47.0947825
C          0.16429       -0.06651        0.10322
H          1.50882        1.61774        0.26904
Cl        -1.55086       -0.43154       -0.19850
Cl         3.37551       -0.30421       -0.71621
C          0.42204        1.43971        0.10838
H          0.74874       -0.53512       -0.71318
H         -0.12764        1.92437        0.94803
C          0.54850       -0.65025        1.39434
N          0.84166       -1.09990        2.42016
N          0.01950        2.01410       -1.17563
H          0.72823        2.71018       -1.49748
H         -0.90106        2.50062       -1.06603
