12
Coordinates from ORCA-job run	Energy:      65.6479208
C          0.97006       -0.00750        0.10111
H          1.66191        2.00391        0.50756
F         -1.95484        0.02472       -0.75185
Cl         2.45347       -0.47860       -0.74960
C          0.74614        1.49309        0.15921
H          0.17583       -0.46194       -0.48153
H         -0.07708        1.68708        0.88551
C          0.92582       -0.59913        1.43676
N          0.91591       -1.04851        2.49858
N          0.36853        1.98370       -1.16050
H          0.08668        2.98193       -1.09836
H         -0.51962        1.51586       -1.42121
