13
Coordinates from ORCA-job run	Energy:      79.6116963
C          0.14008       -0.06514        0.09728
H          1.65367        1.56318        0.07295
Br        -1.78694       -0.25856       -0.04534
Cl         3.18784       -0.42419       -0.35811
C          0.55049        1.43592        0.05312
H          0.55025       -0.58153       -0.81543
C          0.59338       -0.77259        1.32093
N          0.92154       -1.29516        2.30277
C          0.04077        2.16446        1.23011
N         -0.38155        2.73295        2.14952
N          0.06675        2.04696       -1.17467
O         -0.27081        3.19200       -1.18706
O          0.16647        1.46389       -2.21128
