12
Coordinates from ORCA-job run	Energy:      48.9413833
C          0.14616       -0.08776        0.09878
H          1.63016        1.53899        0.29802
Br        -1.78205       -0.35049        0.03841
Cl         3.14892       -0.30556       -0.53710
C          0.53336        1.41376        0.11054
H          0.54396       -0.57205       -0.82238
C          0.68606       -0.79999        1.28728
N          1.09808       -1.34532        2.22559
C         -0.16173        2.15806        1.16260
N         -0.67844        2.79959        1.97393
C          0.21167        2.08288       -1.15577
N         -0.01818        2.65822       -2.13270
