14
Coordinates from ORCA-job run	Energy:      43.8454970
C         -0.13392       -0.20323        0.10026
H          3.10259        1.49263        0.18401
Cl        -1.90823       -0.38804       -0.00580
F          3.59948        1.08583       -0.56309
C          0.31285        1.27403        0.10387
H          0.31262       -0.69915       -0.78700
C          0.36868       -0.90320        1.28893
N          0.76623       -1.45528        2.22511
N         -0.17076        2.06451        1.23018
O          0.21469        3.18575        1.36531
O         -0.91920        1.60439        2.03924
N         -0.03210        1.91668       -1.16356
H          0.49272        2.81726       -1.23896
H         -1.05702        2.12357       -1.18970
