15
Coordinates from ORCA-job run	Energy:     116.8832416
C          0.02183       -0.01961        0.20643
H          1.66758        1.54327        0.36369
F         -1.29525        0.03556        0.59371
H          2.24031       -0.34281       -0.76095
C          0.57017        1.44677        0.16291
H          0.02681       -0.51240       -0.80167
C          0.71225       -0.89518        1.19699
N          1.22532       -1.60404        1.95125
N         -0.11015        2.22140        1.18509
O         -1.00921        2.95576        0.89791
O          0.08921        1.96735        2.33259
C          0.33461        2.04830       -1.23948
H          0.98483        1.55215       -1.99813
H         -0.72685        1.91541       -1.52708
H          0.57366        3.13560       -1.24570
