12
Coordinates from ORCA-job run	Energy:      -2.8242059
C          0.33442       -0.02061        0.04862
H          1.79005        1.57380        0.31646
Br        -3.30644        0.00684       -0.13404
Br         4.09208       -0.73480       -0.94520
C          0.70762        1.45551        0.09744
H          0.91071       -0.52697       -0.75496
H          0.11342        1.97385        0.87939
H          0.48599        1.92209       -0.88466
C          0.59615       -0.71161        1.38085
H          1.67542       -0.65871        1.63876
H          0.00047       -0.22978        2.18482
H          0.29616       -1.77751        1.30742
