14
Coordinates from ORCA-job run	Energy:      49.2249946
C          0.64416        0.00908       -0.02364
H          1.87848        1.64911        0.50658
Br        -2.45828       -1.13892        0.50464
F          1.52893       -0.45662       -0.97619
C          0.85677        1.51595        0.11618
H         -0.36153       -0.21189       -0.37796
C          0.90083       -0.72985        1.28373
H          1.88300       -0.43001        1.70126
H          0.09746       -0.52237        2.01244
H          0.90328       -1.81597        1.09367
C         -0.04488        2.17621        1.06915
N         -0.72645        2.74279        1.81233
C          0.82727        2.17413       -1.19909
N          0.80838        2.70734       -2.22563
