14
Coordinates from ORCA-job run	Energy:      60.7696263
C          0.80068       -0.10210       -0.04029
H          1.82783        1.71657        0.36970
Br        -2.54275       -0.06778        0.10525
H          1.60441       -0.40389       -0.74513
C          0.81028        1.43521        0.07825
H         -0.12290       -0.46229       -0.49484
C          0.96033       -0.78447        1.31936
H          1.75628       -0.31463        1.93295
H         -0.00163       -0.70543        1.86671
H          1.19623       -1.85758        1.19577
C          0.00107        1.99842        1.16390
N         -0.60373        2.51766        2.00300
C          0.55545        2.07846       -1.21660
N          0.38865        2.56021       -2.25638
