16
Coordinates from ORCA-job run	Energy:      60.8761249
C          0.84567       -0.05160        0.02165
H          1.88163        1.80147        0.53622
Cl        -2.88659       -0.00131       -0.06706
Cl         2.24096       -0.55471       -0.97889
C          0.87155        1.49350        0.18232
H         -0.07953       -0.35483       -0.51074
C          0.87783       -0.83333        1.33613
H          1.76374       -0.55767        1.94473
H         -0.05046       -0.64931        1.91664
H          0.90433       -1.92321        1.12325
N         -0.09927        1.97671        1.15932
O         -0.97710        2.72292        0.83644
O          0.05729        1.74273        2.31836
N          0.64539        2.10463       -1.13392
H          0.70758        3.14628       -1.05886
H         -0.30851        1.85312       -1.48690
