16
Coordinates from ORCA-job run	Energy:      46.4692730
C          0.94859        0.00062        0.32810
H          1.45966        1.69753       -0.90750
Cl        -1.32084       -0.69766       -3.08095
H          2.01878       -0.26770        0.46932
C          0.85899        1.51110        0.01198
H          0.56714       -0.58196       -0.53840
C          0.17927       -0.42142        1.58166
H          0.54872        0.12997        2.47169
H         -0.90874       -0.24259        1.46134
H          0.32731       -1.50820        1.75492
N          1.41750        2.30587        1.10527
H          1.37997        3.31736        0.84135
H          2.42376        2.05242        1.23692
N         -0.51577        1.93814       -0.25444
H         -1.10807        1.84928        0.60085
H         -0.92671        1.36464       -1.02389
