16
Coordinates from ORCA-job run	Energy:     104.1183081
C          0.43756        0.00078        0.12572
H          1.76728        1.71496        0.21079
Cl        -2.50575       -0.04802        0.27255
Cl         3.13716       -0.61165       -1.07890
C          0.67445        1.51331        0.10256
H          0.17711       -0.55099       -0.80099
C          0.70480       -0.78125        1.40273
H          1.72290       -0.57675        1.79104
H         -0.05739       -0.49501        2.15408
H          0.60449       -1.86855        1.19713
C         -0.00805        2.16302        1.23317
N         -0.53403        2.70722        2.11030
C          0.20887        2.09359       -1.23335
H          0.79199        1.63478       -2.06064
H         -0.86667        1.88385       -1.41415
H          0.37167        3.19146       -1.26119
