17
Coordinates from ORCA-job run	Energy:      38.8587680
C          0.80090       -0.08286        0.10745
H          1.84569        1.78989        0.47323
F         -2.79048        0.26686       -0.72761
Cl         2.00390       -0.64630       -1.09196
C          0.82461        1.46445        0.17223
H         -0.20113       -0.42667       -0.22762
C          1.11484       -0.75420        1.44799
H          2.11051       -0.43440        1.82182
H          0.34254       -0.51488        2.20662
H          1.11696       -1.85796        1.32187
C         -0.17375        2.03788        1.19383
H         -1.20998        1.72295        0.94990
H          0.07324        1.71107        2.22415
H         -0.12739        3.14719        1.18561
N          0.53955        2.01316       -1.15631
H          0.62833        3.05550       -1.13776
H         -0.43328        1.76436       -1.45236
