13
Coordinates from ORCA-job run	Energy:      91.4696388
C          0.18991       -0.00797        0.09408
H          1.74899        1.39810        0.16590
Br        -1.75615       -0.08275       -0.21502
Br         3.24039       -0.48461       -0.60098
C          0.65438        1.44017        0.12895
H          0.59757       -0.47443       -0.80450
H          0.37348        1.95706       -0.79806
C          0.54986       -0.78684        1.35264
H          1.50080       -0.43307        1.75974
H         -0.26859       -0.64147        2.06716
H          0.66575       -1.84809        1.11741
C          0.13208        2.19518        1.27301
N         -0.27048        2.77743        2.19443
