17
Coordinates from ORCA-job run	Energy:      42.3952179
C          0.09702       -0.10643        0.10439
H          1.58441        1.46582        0.11467
Br        -1.82766       -0.40252        0.00397
F          3.60333       -0.26806       -0.59704
C          0.47479        1.39801        0.07640
H          0.55170       -0.58248       -0.79224
C          0.64733       -0.83667        1.33270
H          1.74943       -0.71637        1.39380
H          0.18666       -0.45710        2.26739
H          0.41844       -1.92077        1.25589
C         -0.08111        2.20018        1.26688
H         -1.19027        2.17119        1.28529
H          0.30862        1.80920        2.22860
H          0.24092        3.26019        1.18739
N          0.03806        1.99775       -1.18755
H          0.40886        2.97327       -1.25938
H         -1.00528        2.04166       -1.23455
