14
Coordinates from ORCA-job run	Energy:      24.0307951
C          0.21700       -0.02382        0.11026
H          1.82848        1.43085        0.39874
Br        -1.69375       -0.05156       -0.24470
H          3.20424       -0.29588       -0.87028
C          0.73454        1.42705        0.19863
H          0.72370       -0.50721       -0.75237
H          0.57718        1.89602       -0.79879
C          0.53568       -0.86845        1.34672
H          1.63212       -0.88571        1.52405
H          0.02307       -0.48723        2.25120
H          0.19466       -1.91212        1.17850
N          0.05192        2.21610        1.20823
O         -0.56708        3.18568        0.88877
O          0.15987        1.94567        2.36558
