17
Coordinates from ORCA-job run	Energy:      32.6731055
C          0.29033       -0.03444        0.06823
H          1.70430        1.60734        0.15103
F         -2.78736       -0.12278        0.08697
F          3.67920       -0.55704       -0.47596
C          0.60166        1.47176        0.09020
H          0.79834       -0.48866       -0.80978
C          0.72080       -0.78791        1.32601
H          1.80683       -0.65370        1.51139
H          0.14373       -0.44394        2.20690
H          0.50875       -1.86903        1.18985
C         -0.04183        2.19516        1.28373
H         -1.14312        2.06448        1.27399
H          0.36403        1.81406        2.24405
H          0.19160        3.28010        1.23847
N          0.13094        2.06237       -1.16578
H          0.38577        3.07666       -1.19802
H         -0.91117        1.97629       -1.23519
