16
Coordinates from ORCA-job run	Energy:      48.7586592
C          0.04301       -0.07332        0.15477
H          1.59943        1.42097        0.20481
Cl        -1.73981       -0.22405        0.12845
F          2.75200       -0.23147       -0.83500
C          0.50207        1.39719        0.10985
H          0.42799       -0.58251       -0.75115
C          0.63650       -0.79685        1.36462
H          1.74184       -0.77206        1.27880
H          0.34217       -0.32525        2.32670
H          0.31813       -1.85666        1.36781
C         -0.01999        2.18793        1.23338
N         -0.41789        2.82883        2.10990
C          0.16648        2.05567       -1.22940
H          0.78220        1.58297       -2.02535
H         -0.90544        1.94094       -1.48438
H          0.41188        3.13889       -1.20799
