16
Coordinates from ORCA-job run	Energy:      47.6640785
C          0.75010       -0.02759       -0.04628
H          1.89733        1.72055        0.47797
Br        -2.62189       -0.66967        0.96056
F          1.67624       -0.44338       -0.98825
C          0.86796        1.50513        0.11231
H         -0.25118       -0.31559       -0.43451
C          1.02462       -0.77410        1.26598
H          1.83773       -0.28534        1.84548
H          0.11569       -0.81423        1.90370
H          1.33287       -1.81421        1.03542
C         -0.14758        2.09463        1.08895
H         -1.18686        1.88527        0.75446
H         -0.00369        1.68204        2.10909
H         -0.01508        3.19872        1.14290
C          0.71982        2.16541       -1.19592
N          0.64069        2.66007       -2.23830
