16
Coordinates from ORCA-job run	Energy:      48.0450631
C          0.98914        0.05249        0.25355
H          1.56644        1.80975       -0.86749
Cl        -1.75051       -1.41946       -2.09718
F          2.30532       -0.29920        0.50194
C          0.90777        1.57766       -0.00022
H          0.66649       -0.48159       -0.66505
C          0.12283       -0.42769        1.42092
H          0.42266        0.07478        2.36441
H         -0.95212       -0.23562        1.22610
H          0.25022       -1.52350        1.54815
N          1.38055        2.33140        1.16164
H          1.33899        3.35312        0.94092
H          2.38163        2.09306        1.34886
N         -0.45084        2.00574       -0.34222
H         -1.09479        1.89577        0.47360
H         -0.81086        1.44829       -1.15034
