17
Coordinates from ORCA-job run	Energy:      32.4067951
C          1.10901        0.00559        0.21174
H          1.77193        1.78725       -0.80715
Cl        -1.40575       -1.61860       -2.06099
H          2.13938       -0.21573        0.56502
C          0.99328        1.52332       -0.05680
H          0.95927       -0.54421       -0.74142
C          0.12324       -0.52718        1.25611
H          0.28183       -0.02596        2.23345
H         -0.92689       -0.37924        0.93241
H          0.28610       -1.61777        1.38961
N          1.24145        2.28451        1.16782
H          1.23120        3.30674        0.94797
H          2.19436        2.05574        1.53291
C         -0.36864        1.90880       -0.65107
H         -0.55211        1.34349       -1.58898
H         -1.19320        1.70958        0.06356
H         -0.38161        2.99240       -0.89329
