15
Coordinates from ORCA-job run	Energy:      85.9347429
C          0.18510       -0.11522        0.14413
H          1.61627        1.48936        0.25678
Br        -1.73258       -0.47437        0.18392
F          2.79718       -0.13309       -0.71209
C          0.52698        1.38358        0.11114
H          0.54245       -0.59341       -0.80078
N          0.85230       -0.72607        1.30670
H          1.89546       -0.73835        1.20220
H          0.59538       -1.72895        1.35108
C         -0.14944        2.15883        1.23739
H         -1.23670        2.28067        1.04951
H         -0.01170        1.62531        2.19916
H          0.30564        3.16500        1.32320
C          0.21224        1.98367       -1.18436
N         -0.02110        2.49397       -2.19268
