14
Coordinates from ORCA-job run	Energy:      79.7756821
C          0.48378        0.00348        0.08305
H          1.80473        1.75975        0.21046
Cl        -2.44522       -0.27489       -0.05698
F          3.25000       -0.21905       -0.42885
C          0.73389        1.51841        0.10685
H          0.73943       -0.56398       -0.83843
N          0.76558       -0.70417        1.33076
H          1.75274       -1.04745        1.36371
H          0.14915       -1.54852        1.31801
C         -0.00114        2.08188        1.25307
N         -0.55718        2.49968        2.17868
N          0.22824        2.06440       -1.15971
H          0.31169        3.10453       -1.17548
H         -0.77687        1.80235       -1.28351
