15
Coordinates from ORCA-job run	Energy:      78.5052160
C          0.03782       -0.04547        0.19452
H          1.58663        1.40676        0.24567
F         -1.32493       -0.15751        0.36776
H          2.65255       -0.33326       -0.69770
C          0.48148        1.40735        0.13029
H          0.31992       -0.53750       -0.76394
N          0.71542       -0.69828        1.29732
H          1.71376       -0.72919        1.02739
H          0.42158       -1.69467        1.30176
C         -0.10019        2.18931        1.22442
N         -0.54662        2.83869        2.08080
C          0.17081        2.00072       -1.23589
H          0.86458        1.53094       -1.96731
H         -0.87245        1.78836       -1.53534
H          0.33797        3.09471       -1.25767
