16
Coordinates from ORCA-job run	Energy:      49.2388200
C          0.06058       -0.05307        0.20019
H          1.64346        1.44337        0.27529
F         -1.32516       -0.10137        0.19300
F          2.92487       -0.38619       -1.45842
C          0.53801        1.41711        0.15703
H          0.43275       -0.59813       -0.69514
N          0.56571       -0.73202        1.39051
H          1.60842       -0.79484        1.31908
H          0.19895       -1.71119        1.39741
N         -0.07082        2.18847        1.23875
O         -0.75906        3.13931        1.00740
O          0.13135        1.88465        2.37450
C          0.23018        2.02389       -1.22210
H          0.74911        1.44476       -2.01657
H         -0.86132        2.01633       -1.43097
H          0.60182        3.06975       -1.26888
