14
Coordinates from ORCA-job run	Energy:      71.8321193
C          0.26151        0.01215        0.16379
H          1.69801        1.68068       -0.06137
F         -1.11767       -0.14249        0.17320
Cl         3.46196       -0.29638       -0.72743
C          0.60098        1.50651       -0.02545
H          0.65191       -0.58976       -0.68180
N          0.82423       -0.48173        1.42392
H          1.72109       -0.99072        1.25217
H          0.17876       -1.16233        1.87932
N          0.04582        2.29168        1.07672
H          0.50119        1.99838        1.97524
H         -0.98582        2.11408        1.15839
C          0.04504        1.97094       -1.30512
N         -0.41520        2.33132       -2.30400
