16
Coordinates from ORCA-job run	Energy:      41.3203671
C          1.06512        0.05668       -0.10073
H          1.74085        2.05121        0.43892
F         -2.09335       -1.20386        1.80429
F          2.11517       -0.15260       -0.98016
C          0.81990        1.57706        0.02747
H          0.16045       -0.44011       -0.51761
N          1.40341       -0.55209        1.18406
H          1.62272       -1.56175        1.01917
H          0.56957       -0.53179        1.81257
C         -0.34145        1.90869        0.97645
H         -1.27059        1.39051        0.65738
H         -0.09803        1.61140        2.01746
H         -0.52619        3.00365        0.97846
N          0.54509        2.13875       -1.28428
O          1.27391        2.96736       -1.74274
O         -0.40672        1.78233       -1.91443
