13
Coordinates from ORCA-job run	Energy:      26.1392055
C         -0.04737       -0.05082        0.04395
H          1.68131        1.24721       -0.21247
F         -1.41856        0.07461        0.19101
F          3.98166        0.08506        0.50330
C          0.58077        1.34086       -0.09379
H          0.16236       -0.65121       -0.86888
H          0.37973        1.92076        0.83494
N          0.49732       -0.73720        1.21187
H          1.52677       -0.86876        1.08791
H          0.06341       -1.68718        1.27171
N          0.04046        2.03881       -1.24322
O         -0.53264        3.07524       -1.09973
O          0.19208        1.59470       -2.34134
