16
Coordinates from ORCA-job run	Energy:      84.5458694
C          1.01551       -0.00385        0.04846
H          1.80217        2.02919        0.24960
F         -2.33859       -0.23986       -0.28195
Br         2.64175       -0.43761       -0.93509
C          0.81614        1.54625        0.07687
H          0.15801       -0.48414       -0.46876
N          1.11740       -0.58374        1.38866
H          1.32902       -1.60274        1.29059
H          0.16604       -0.54966        1.82976
C         -0.06443        2.02043        1.24699
H         -1.07346        1.56181        1.21200
H          0.41982        1.77372        2.21678
H         -0.16486        3.12759        1.21620
N          0.28281        1.99851       -1.20923
O         -0.77188        2.55185       -1.27281
O          0.88586        1.79150       -2.21334
