15
Coordinates from ORCA-job run	Energy:     102.0092110
C          1.09712       -0.01980       -0.01428
H          1.78987        2.03021        0.17928
F         -1.87068       -0.16289        0.12178
F          2.35902       -0.20588       -0.55719
C          0.81443        1.51258        0.05596
H          0.38015       -0.53011       -0.69310
N          1.03646       -0.68411        1.28811
H          1.22766       -1.70219        1.13362
H          0.05081       -0.64575        1.63917
C          0.00012        1.94979        1.20829
N         -0.63864        2.31742        2.10398
C          0.14765        1.98306       -1.24483
H          0.71900        1.63056       -2.12780
H         -0.88584        1.57795       -1.32696
H          0.07594        3.08995       -1.27224
