13
Coordinates from ORCA-job run	Energy:      27.7060701
C          0.03380       -0.02462        0.56152
H          1.15723        1.20548        1.94366
F         -1.09158       -0.14116        1.35967
H          3.04805       -0.00756       -1.43818
C          0.77174        1.27481        0.90244
H         -0.28606       -0.00694       -0.50539
H          1.64025        1.40504        0.21897
N          0.90103       -1.17598        0.79807
H          1.75162       -1.11031        0.19551
H          0.38479       -2.04575        0.53311
N         -0.11050        2.41782        0.78303
O         -0.60871        2.68814       -0.26831
O         -0.32850        3.10500        1.73276
