13
Coordinates from ORCA-job run	Energy:      31.5556792
C          0.79585       -0.10475        0.16253
H          1.59164        1.83785       -0.44267
F         -2.18915       -0.04313       -1.38813
H          1.69576       -0.37985        0.75685
C          0.69858        1.42606        0.07998
H         -0.10526       -0.49122        0.68727
H         -0.21082        1.70510       -0.49272
N          0.88937       -0.73568       -1.14283
O          0.89407       -0.08945       -2.14755
O          0.96380       -1.92561       -1.21244
N          0.61119        1.99964        1.41910
H          0.50064        3.03558        1.33032
H          1.50616        1.81747        1.92781
