13
Coordinates from ORCA-job run	Energy:      97.2356284
C          0.98514       -0.11521        0.04581
H          1.90378        1.88460       -0.00524
F         -2.27122        0.25310       -0.27626
Cl         2.62616       -0.62543        0.54514
C          0.88660        1.43220        0.02894
H          0.27358       -0.53747        0.78847
H          0.36183        1.77500       -0.88981
N          0.68887       -0.68936       -1.25053
O          1.27056       -0.32325       -2.23266
O         -0.13496       -1.55019       -1.34906
N          0.16101        1.93826        1.18112
O         -0.82742        2.58438        1.02682
O          0.55246        1.71357        2.28783
