13
Coordinates from ORCA-job run	Energy:      25.3458226
C          1.01749       -0.00726       -0.05887
H          1.95718        1.80304       -0.81443
Cl        -2.90116       -0.40784        0.22254
Cl         2.46587       -0.50890        0.85861
C          1.03800        1.51471       -0.25895
H          0.12528       -0.28041        0.54780
H          1.05719        2.01887        0.73281
N          0.98165       -0.70201       -1.33083
O          1.85947       -0.55077       -2.12720
O          0.08023       -1.44346       -1.58392
N         -0.13091        1.96138       -1.01078
H         -0.05769        2.99537       -1.15001
H         -0.99288        1.77811       -0.44866
