14
Coordinates from ORCA-job run	Energy:     195.6309545
C          0.01359       -0.05449       -0.47645
H          1.28296        1.69255       -0.90199
F         -1.00418       -0.18439       -1.39859
F          1.98027       -0.15722        1.22455
C          0.37365        1.47939       -0.28958
H         -0.39278       -0.47881        0.47642
N          1.11982       -0.88477       -0.96849
O          1.90286       -0.44025       -1.75395
O          1.03973       -2.07282       -0.85941
N          0.63091        1.92701        1.07552
O          1.56955        2.63414        1.30250
O         -0.18164        1.74659        1.92901
C         -0.70618        2.31304       -0.81606
N         -1.56913        2.99223       -1.17412
