11
Coordinates from ORCA-job run	Energy:      14.8241747
C          0.13102        0.01816       -0.11650
H          1.70969        1.52433       -0.17231
Cl        -1.64306       -0.02551        0.08934
Cl         3.64898       -0.73880        0.70947
C          0.60376        1.47539       -0.07417
H          0.59553       -0.52283        0.73578
H          0.32011        1.93695        0.89596
H          0.14103        2.06004       -0.89724
N          0.49504       -0.65530       -1.35415
O          1.08654       -0.08224       -2.22020
O          0.21556       -1.80575       -1.50221
