13
Coordinates from ORCA-job run	Energy:      34.3154176
C          0.96955       -0.01497       -0.03778
H          2.03301        1.74981       -0.75651
Br        -2.95717       -0.44348        0.03142
Cl         2.33683       -0.57000        0.96994
C          1.08233        1.50827       -0.23459
H          0.02958       -0.22812        0.51500
H          1.09200        2.00757        0.76006
N          0.95990       -0.75870       -1.28933
O          1.06526       -0.20486       -2.34287
O          0.84057       -1.94639       -1.26499
N         -0.04118        2.02112       -1.01298
H          0.07807        3.05300       -1.12770
H         -0.93180        1.85526       -0.49186
