17
Coordinates from ORCA-job run	Energy:      71.5383736
C          1.09319       -0.02970        0.07302
H          1.66957        1.95785       -0.57556
Cl        -2.94240       -0.85935       -0.62001
Cl         2.72777       -0.22614        0.78076
C          0.78573        1.49445       -0.07737
N          1.07356       -0.68153       -1.23653
O          1.79827       -0.29676       -2.10151
O          0.33076       -1.59175       -1.46727
C          0.15317       -0.68866        1.00615
N         -0.56178       -1.20685        1.75519
C          0.56565        2.21118        1.27181
H         -0.35013        1.82488        1.77241
H          1.42824        2.06263        1.95192
H          0.42359        3.30106        1.11072
N         -0.36415        1.72065       -0.95652
H         -0.42757        2.73969       -1.19148
H         -1.24979        1.43125       -0.48664
