15
Coordinates from ORCA-job run	Energy:      31.2247131
C          1.09728       -0.04479        0.13881
H          1.30435        1.96909       -0.65394
Cl        -2.72709       -0.43930       -0.65588
F          2.38246       -0.02021        0.65585
C          0.59351        1.41377       -0.00196
H         -0.40640        1.43046       -0.48676
N          1.12541       -0.73291       -1.14760
O          0.75885       -0.19351       -2.14806
O          1.52293       -1.85938       -1.20773
C          0.24124       -0.80469        1.07097
N         -0.41959       -1.39704        1.81048
C          0.48159        2.15545        1.33325
H         -0.28523        1.67658        1.97851
H          1.45545        2.16289        1.86369
H          0.16463        3.20269        1.14679
