18
Coordinates from ORCA-job run	Energy:      64.7291246
C          0.04216       -0.12678       -0.14915
H          1.56922        1.44954       -0.22141
Cl        -1.74268       -0.28737       -0.18521
F          3.47403       -0.23477        0.77784
C          0.46275        1.39167       -0.12015
N          0.60665       -0.83805       -1.29702
O          1.35760       -0.29657       -2.05601
O          0.36733       -1.99690       -1.45557
C          0.50079       -0.81252        1.07601
N          0.84487       -1.35046        2.04311
C          0.11466        2.09216        1.20828
H         -0.97900        2.06803        1.40212
H          0.64284        1.61310        2.05781
H          0.44923        3.15179        1.17874
C         -0.17216        2.19339       -1.27667
H          0.06713        1.75995       -2.26723
H         -1.27769        2.23199       -1.17480
H          0.20308        3.23836       -1.26879
