19
Coordinates from ORCA-job run	Energy:      73.9033606
C          1.00434       -0.02139        0.19531
H          1.49663        1.87462       -0.76493
F         -2.14629       -1.23325       -1.50211
F          2.27897       -0.21772        0.70759
C          0.78125        1.52159        0.01184
N          0.92989       -0.74842       -1.07314
O          0.76684       -0.18027       -2.11069
O          1.12691       -1.92736       -1.08803
C         -0.00438       -0.62322        1.19403
H          0.09230       -0.15862        2.19591
H         -1.04598       -0.49105        0.83546
H          0.18522       -1.71018        1.32306
C          1.09239        2.31754        1.29066
H          0.38636        2.06521        2.10796
H          2.13020        2.12383        1.63382
H          0.99723        3.40600        1.08953
N         -0.59226        1.83338       -0.40581
H         -0.89885        1.25476       -1.21662
H         -0.63715        2.83416       -0.70824
