14
Coordinates from ORCA-job run	Energy:      38.9770971
C          1.23847       -0.16060       -0.08958
H          1.78315        1.75597        0.81978
Br        -2.85306        0.39774        0.09722
F          2.55845       -0.49326       -0.35075
C          1.12700        1.37110        0.00903
H          0.07946        1.67104        0.22988
H          1.44281        1.85079       -0.94110
N          0.40314       -0.69531       -1.15914
O          0.14195       -0.01336       -2.10765
O          0.28350       -1.87845       -1.26457
C          0.84558       -0.77987        1.26222
H          1.50432       -0.39335        2.07030
H         -0.20878       -0.53996        1.51449
H          0.96172       -1.88447        1.23243
