17
Coordinates from ORCA-job run	Energy:      46.4582359
C         -0.02539       -0.09048       -0.03140
H          1.59424        1.39004       -0.09385
Br        -1.97179       -0.09630       -0.16396
Cl         4.03245       -0.15198        0.15577
C          0.48997        1.37427        0.01779
H          0.05898        1.92720       -0.84742
N          0.51737       -0.74076       -1.22610
O          0.29024       -0.28250       -2.30455
O          1.19462       -1.72035       -1.14309
C          0.35272       -0.87243        1.24831
H          1.44914       -0.87025        1.40572
H         -0.14019       -0.43124        2.13972
H         -0.00163       -1.92210        1.17218
C          0.15603        2.14122        1.30117
H         -0.93431        2.14002        1.50168
H          0.69373        1.69708        2.16584
H          0.50250        3.19170        1.20492
