15
Coordinates from ORCA-job run	Energy:      74.5469493
C          1.11461       -0.17132       -0.02786
H          2.04015        1.57807        0.87539
F         -1.96404        0.13443        0.37788
H          2.13018       -0.49224       -0.32780
C          1.20664        1.37360        0.17626
H          1.43180        1.86654       -0.79195
N          0.25092       -0.58703       -1.12766
O         -0.18046        0.21459       -1.90292
O          0.19425       -1.74610       -1.41098
C          0.80456       -0.94902        1.27334
H          1.65205       -0.83171        1.97943
H         -0.12332       -0.62621        1.78834
H          0.71039       -2.03749        1.05823
C          0.03755        2.05474        0.75376
N         -0.85299        2.64122        1.20842
