14
Coordinates from ORCA-job run	Energy:     122.0749205
C          0.18429       -0.06728       -0.03667
H          1.73584        1.55441        0.06096
Br        -1.76318       -0.09096       -0.09683
F          2.98404       -0.28798       -0.27955
C          0.65341        1.41472       -0.04187
H          0.19871        1.88692        0.86680
N          0.68785       -0.84492       -1.17160
O          0.79106       -0.34106       -2.25175
O          0.66866       -2.04133       -1.11788
N          0.58225       -0.68612        1.23799
H          1.57972       -0.99832        1.30436
H          0.02184       -1.55040        1.37046
C          0.22772        2.22152       -1.19919
N         -0.13351        2.88838       -2.06159
