13
Coordinates from ORCA-job run	Energy:      36.7905891
C          1.35572       -0.11079       -0.00774
H          1.34365        1.93107       -0.78413
F         -2.69438        0.46848        0.64496
F          2.71539       -0.06965        0.25061
C          0.82356        1.32806       -0.00993
H          1.00802        1.79890        0.97958
H         -0.26658        1.34406       -0.21800
N          1.14338       -0.73613       -1.30801
O          1.61501       -0.24400       -2.28824
O          0.53261       -1.75944       -1.40698
N          0.69714       -0.86445        1.06477
H          1.08464       -1.83511        1.10832
H         -0.33331       -0.92032        0.88931
