15
Coordinates from ORCA-job run	Energy:      56.3324975
C          0.04666       -0.00971        0.02519
H          1.79802        1.25760        0.40313
Br        -1.88209        0.20571       -0.17914
F          3.59903       -0.35722       -0.61435
C          0.71516        1.38025        0.17891
H          0.63593        1.92828       -0.78547
N          0.55908       -0.67532       -1.17021
O          0.41065       -0.17004       -2.23959
O          1.09408       -1.74229       -1.10074
N          0.30073       -0.81423        1.22746
H          1.32960       -0.97496        1.34276
H         -0.16592       -1.74786        1.13805
N          0.09431        2.17771        1.22122
O         -0.40530        3.23114        0.95114
O          0.09316        1.80248        2.35293
