14
Coordinates from ORCA-job run	Energy:      98.3037794
C          0.18327       -0.05613       -0.01278
H          1.78069        1.56221        0.06201
Br        -1.75889       -0.01225       -0.19106
F          3.13547       -0.30920       -0.07889
C          0.68780        1.42719        0.06458
H          0.31263        1.95612       -0.83909
N          0.75023       -0.72698       -1.18347
O          0.84208       -0.12325       -2.21114
O          0.70270       -1.91763       -1.24338
N          0.49357       -0.80136        1.22490
H          1.48341       -1.12781        1.30688
H         -0.09747       -1.66219        1.27782
C          0.17060        2.13189        1.24161
N         -0.23264        2.69299        2.16597
