17
Coordinates from ORCA-job run	Energy:      97.6193271
C          1.23515        0.07943        0.11909
H          1.55434        2.08744       -0.63294
F         -2.35085       -1.01143       -0.87705
F          2.55941        0.11693        0.51575
C          0.75459        1.55135       -0.07318
N          1.14466       -0.66776       -1.13955
O          1.72662       -0.27470       -2.10578
O          0.50567       -1.67468       -1.21933
N          0.47016       -0.58303        1.18251
H          0.89073       -1.51859        1.38572
H         -0.53472       -0.70036        0.91995
N          0.55415        2.21117        1.21318
O          1.45620        2.28129        1.99540
O         -0.50793        2.66885        1.51107
N         -0.45515        1.62336       -0.90143
H         -0.64709        2.62563       -1.13711
H         -1.27931        1.22611       -0.40241
