16
Coordinates from ORCA-job run	Energy:     533.2326140
C          0.56383        0.02729       -0.02172
H          1.68866        1.76698       -0.66530
Cl        -2.51614       -0.61810       -1.01135
F          3.43056        0.09260        0.64695
C          0.73138        1.54364       -0.15654
N          0.78364       -0.83397       -1.14087
O          1.11105       -0.36714       -2.18261
O          0.85894       -2.01574       -0.98633
N          0.23738       -0.49214        1.10939
H          1.06984       -0.73719        1.65572
H         -0.14203       -1.44352        1.10022
N          0.78635        2.24899        1.11999
H          1.61229        1.93493        1.65666
H         -0.08671        2.07421        1.66683
C         -0.35338        2.12571       -0.98153
N         -1.20316        2.56698       -1.62884
