16
Coordinates from ORCA-job run	Energy:      36.7649302
C          0.58176       -0.14374       -0.02413
H          1.53622        1.73894       -0.44267
Br        -2.92128       -0.36669       -0.68951
F          3.63636       -0.04660        0.45960
C          0.57374        1.38415       -0.01612
H         -0.24986        1.72896       -0.67784
N          0.72585       -0.81243       -1.28297
O          0.83022       -0.17992       -2.29045
O          0.73041       -2.00530       -1.34360
N          0.46114       -0.83475        1.06543
H          0.35746       -0.39752        1.98975
H          0.46850       -1.86447        1.04584
C          0.38161        2.05056        1.34658
H         -0.59690        1.75792        1.78461
H          1.20485        1.77338        2.03850
H          0.38960        3.15396        1.22206
