12
Coordinates from ORCA-job run	Energy:      77.4805771
C          1.09286       -0.13464        0.08075
H          2.16198        1.77131        0.00911
Cl        -2.27130        0.37324       -0.16695
H          2.04890       -0.54581        0.46256
C          1.11523        1.40551        0.11103
H          0.27122       -0.51619        0.72226
H          0.52286        1.83023       -0.73679
C          0.86813       -0.65589       -1.27707
N          0.65412       -1.04632       -2.33774
N          0.52834        1.89214        1.35320
H         -0.49251        1.66310        1.34219
H          0.56846        2.93930        1.37642
