12
Coordinates from ORCA-job run	Energy:      49.4020294
C          0.11806       -0.04761       -0.10716
H          1.60246        1.64663       -0.19456
Br        -1.81112       -0.18155       -0.10456
Cl         3.25899       -0.41060        0.58226
C          0.51644        1.44884       -0.03901
H          0.51728       -0.61389        0.75830
H         -0.00388        1.96029       -0.87376
C          0.58251       -0.65999       -1.36398
N          0.97937       -1.18070       -2.31316
N          0.08844        2.04487        1.21683
O         -0.00739        3.22646        1.28163
O          0.21560        1.42362        2.23510
