14
Coordinates from ORCA-job run	Energy:      84.6965060
C          0.06380       -0.04204       -0.20724
H          1.55552        1.57904       -0.45430
F         -1.30926       -0.16392       -0.31687
Cl         2.97004       -0.33230        1.07617
C          0.48008        1.44833       -0.18123
H          0.34441       -0.53390        0.75028
C          0.71711       -0.73533       -1.32096
N          1.22486       -1.30227       -2.19424
N          0.29228        2.00258        1.16830
H          0.49481        3.03083        1.16739
H          1.01171        1.57140        1.79773
N         -0.34237        2.18197       -1.14479
H         -0.03224        3.17771       -1.20162
H         -1.33385        2.17220       -0.80820
