13
Coordinates from ORCA-job run	Energy:      73.6885053
C          0.10127       -0.02695       -0.17819
H          1.48325        1.63970       -0.38784
Br        -1.77314       -0.36902       -0.45906
F          2.54419       -0.06623        0.83748
C          0.41286        1.48014       -0.14198
H          0.37883       -0.49443        0.79040
H         -0.20345        2.01659       -0.89236
C          0.83386       -0.69748       -1.26693
N          1.43369       -1.20793       -2.09902
C          0.21564        2.02802        1.26847
H         -0.79727        1.81119        1.65861
H          0.97018        1.52737        1.91153
H          0.39165        3.12144        1.31660
