14
Coordinates from ORCA-job run	Energy:     118.4807668
C          0.11460       -0.04037       -0.16679
H          1.59829        1.63103       -0.48885
Cl        -1.64185       -0.30477       -0.28239
Cl         2.93794       -0.24178        0.90700
C          0.52635        1.46494       -0.17797
H          0.36276       -0.49461        0.81495
C          0.73449       -0.77899       -1.28616
N          1.20725       -1.34177       -2.18377
N          0.34468        2.02592        1.17268
H          0.55007        3.04979        1.19129
H          1.04879        1.59011        1.81708
N         -0.30143        2.17028       -1.14805
H         -0.05273        3.18070       -1.18269
H         -1.29403        2.10523       -0.83803
