12
Coordinates from ORCA-job run	Energy:     141.4629835
C          1.08395       -0.06381       -0.07887
H          1.84245        1.97333       -0.29035
Cl        -2.00262        0.10778        0.26340
Cl         2.79325       -0.41104        0.26370
C          0.85805        1.48592       -0.14559
H          0.49477       -0.47632        0.76346
H          0.45530        1.81365        0.84411
C          0.72341       -0.86470       -1.26450
N          0.45358       -1.52328       -2.17904
N         -0.06187        1.96898       -1.16640
O         -0.65696        2.98449       -0.95698
O          0.10916        1.64671       -2.30139
