13
Coordinates from ORCA-job run	Energy:     211.8466923
C          0.99444       -0.07263       -0.02504
H          1.75842        1.87136        0.12786
F         -1.52888        0.13888       -0.02244
F          2.35219       -0.26650        0.04032
C          0.75037        1.47806        0.01838
H          0.56711       -0.57418        0.88913
C          0.62234       -0.77543       -1.28190
N          0.44319       -1.34812       -2.27386
N         -0.00752        1.90476        1.19398
O         -0.72856        2.85875        1.13847
O          0.24856        1.44198        2.25781
C          0.18645        2.06211       -1.23267
N         -0.19345        2.55374       -2.21294
