12
Coordinates from ORCA-job run	Energy:      38.0715737
C          0.17663       -0.02141       -0.09414
H          1.68465        1.56858       -0.27309
Br        -1.71280       -0.29767        0.19172
Cl         3.35547       -0.44164        0.33589
C          0.58186        1.46210       -0.14951
H          0.69225       -0.46557        0.79323
H          0.32022        1.93273        0.82273
C          0.58221       -0.76866       -1.29384
N          0.89474       -1.37787       -2.22986
N         -0.06061        2.18584       -1.23985
H          0.28143        3.17469       -1.22324
H         -1.09075        2.22003       -1.06254
