12
Coordinates from ORCA-job run	Energy:      45.1359762
C          0.83850       -0.14849       -0.31190
H          1.81047        1.81035       -0.39260
Cl        -1.56787        0.46626        1.88676
Br         2.11268       -0.78254        0.98329
C          0.79171        1.38696       -0.25908
H         -0.15177       -0.54022       -0.03744
H          0.42228        1.68325        0.74025
C          1.22348       -0.64716       -1.64074
N          1.58083       -1.01154       -2.68162
N         -0.08256        1.97783       -1.24893
O         -0.05594        3.15807       -1.41689
O         -0.83876        1.30993       -1.88696
