15
Coordinates from ORCA-job run	Energy:      95.3797510
C          0.13863       -0.06988        0.04944
H          1.65138        1.60381        0.15522
F         -1.19997       -0.14283        0.35109
Cl         3.22337       -0.37986       -0.35222
C          0.55527        1.43824        0.04677
H          0.70291       -0.59762        0.86070
C          0.27172       -0.81371       -1.21914
N          0.27654       -1.40473       -2.21778
N         -0.05718        2.07989        1.20057
O         -0.78684        3.01842        1.07332
O          0.14861        1.64718        2.29514
C          0.16853        2.11257       -1.27940
H          0.79523        1.69924       -2.10231
H         -0.89762        1.91650       -1.50558
H          0.35190        3.20617       -1.23830
