15
Coordinates from ORCA-job run	Energy:      73.6003676
C          0.51957       -0.00031       -0.11389
H          1.74809        1.82165       -0.26275
Cl        -2.42564       -0.44331       -0.07413
F          3.32446       -0.21487        0.65658
C          0.68165        1.52628       -0.13134
H          0.61278       -0.56327        0.83597
C          0.82228       -0.70949       -1.36463
N          1.03927       -1.29931       -2.34431
C          0.18560        2.09152        1.20862
H         -0.86419        1.78244        1.40198
H          0.82078        1.71797        2.04200
H          0.23284        3.20057        1.20962
N         -0.10190        2.07355       -1.24285
H         -0.08088        3.11784       -1.22042
H         -1.09891        1.76693       -1.16747
