15
Coordinates from ORCA-job run	Energy:      85.5408111
C          0.12879       -0.07062        0.00823
H          1.63715        1.53833        0.04499
Cl        -1.62810       -0.22139        0.27182
Cl         3.19749       -0.42926       -0.01197
C          0.54106        1.42418       -0.00901
H          0.65186       -0.55855        0.87561
C          0.42586       -0.76003       -1.26053
N          0.59550       -1.31813       -2.26122
N          0.02810        2.05622        1.18879
O         -0.58423        3.07920        1.13991
O          0.23558        1.55166        2.24942
C          0.09783        2.13607       -1.29534
H          0.63426        1.69380       -2.16257
H         -0.99184        2.02507       -1.44817
H          0.35581        3.21251       -1.25517
