14
Coordinates from ORCA-job run	Energy:     191.0622150
C          1.02812       -0.06398       -0.02642
H          1.74812        1.88730        0.01979
Cl        -1.84197       -0.23160        0.30825
F          2.39421       -0.20047        0.00147
C          0.73579        1.47787       -0.04537
H          0.71407       -0.56366        0.91442
C          0.62341       -0.80029       -1.25142
N          0.36990       -1.30352       -2.26404
C          0.10312        2.03020        1.18170
N         -0.38525        2.49188        2.13077
C          0.07599        2.05276       -1.29129
H          0.66109        1.75156       -2.17633
H         -0.95609        1.68430       -1.39760
H          0.05481        3.16182       -1.24550
