13
Coordinates from ORCA-job run	Energy:      85.7941705
C          0.86985       -0.04082        0.06778
H          1.64347        1.84199       -0.54673
Cl        -2.13861       -0.55812       -0.60814
Br         2.57192       -0.40670        0.93667
C          0.71139        1.48130       -0.08682
H          0.05942       -0.45242        0.71449
C          0.93142       -0.72602       -1.23440
N          1.00391       -1.25002       -2.26113
N          0.50890        2.07162        1.23384
H          0.26807        3.08374        1.14907
H          1.40408        2.01084        1.76527
C         -0.31067        2.01594       -1.00640
N         -1.06155        2.55918       -1.70042
