15
Coordinates from ORCA-job run	Energy:     151.1420161
C          0.00209       -0.18918       -0.09339
H          1.43051        1.32179       -0.02045
F         -1.34515       -0.40201        0.11462
H          3.27144        0.95582        0.35468
C          0.38744        1.29740       -0.05076
H          0.55409       -0.64878        0.73664
C          0.41214       -0.87360       -1.32308
N          0.72089       -1.44886       -2.27861
C          0.00539        1.97853        1.25344
H         -0.92320        1.55771        1.66457
H          0.83158        1.82603        1.98781
H         -0.10640        3.06763        1.09880
N          0.08062        2.09362       -1.21682
O          0.49270        3.21237       -1.27477
O         -0.37929        1.59922       -2.19636
