14
Coordinates from ORCA-job run	Energy:      87.7531176
C          0.06829       -0.03739       -0.19132
H          1.52225        1.58460       -0.49306
Cl        -1.69179       -0.33052       -0.26300
Br         3.20342       -0.24411        0.95640
C          0.45261        1.46511       -0.19305
H          0.41454       -0.50158        0.75375
C          0.73443       -0.76376       -1.27700
N          1.25701       -1.34826       -2.13277
N          0.31075        2.00693        1.16139
H          0.60312        3.00989        1.17507
H          0.99648        1.50903        1.77846
N         -0.37702        2.21452       -1.13876
H         -0.04819        3.20484       -1.18807
H         -1.36006        2.24138       -0.78131
