13
Coordinates from ORCA-job run	Energy:      63.3166851
C          0.14896       -0.05633        0.09938
H          1.56299        1.63275        0.20343
Cl        -1.53965       -0.27389        0.61103
Cl         3.44021       -0.13810       -0.46379
C          0.48456        1.45277        0.01574
H          0.79612       -0.51688        0.87876
H         -0.05279        1.97705        0.83702
C          0.29760       -0.78473       -1.17061
N          0.37136       -1.31820       -2.19491
C          0.16149        2.08035       -1.34101
H          0.85023        1.65033       -2.10374
H         -0.88607        1.87509       -1.63603
H          0.33545        3.17470       -1.31010
