13
Coordinates from ORCA-job run	Energy:     195.0597092
C          1.10628       -0.02660       -0.02286
H          1.39121        2.03011        0.42163
Cl        -1.85697       -0.41131        0.10662
Cl         2.91468        0.06188       -0.13500
C          0.53832        1.43455        0.04316
H         -0.28633        1.59607        0.73405
C          0.68967       -0.79430       -1.24360
N          0.50880       -1.39364       -2.22297
N          0.75902       -0.72334        1.22800
O          0.67137       -0.11038        2.25598
O          0.76730       -1.91806        1.27648
C          0.19566        2.01749       -1.27448
N         -0.01892        2.52544       -2.31110
