14
Coordinates from ORCA-job run	Energy:     134.5742984
C          0.23956       -0.09285       -0.05864
H          1.61912        1.66273       -0.25245
F         -1.11470       -0.24389       -0.19605
F          2.85985       -0.13346        0.31822
C          0.54266        1.41098       -0.09120
H          0.28046        1.86544        0.90835
C          0.84302       -0.79559       -1.24104
N          1.24642       -1.35410       -2.16795
N          0.61294       -0.73922        1.20182
O          0.62039       -0.11714        2.22855
O          0.61070       -1.93371        1.25981
N         -0.22344        2.06072       -1.15236
H          0.15602        3.00601       -1.36312
H         -1.21542        2.17694       -0.83303
