14
Coordinates from ORCA-job run	Energy:      31.2972114
C         -0.02721       -0.07168        0.09893
H          1.55534        1.49426        0.17893
Cl        -1.80182       -0.10569        0.25215
Br         3.66751       -0.14732       -0.53678
C          0.45928        1.40079        0.03066
H         -0.01680        1.96263        0.86282
C          0.31224       -0.85014       -1.10741
N          0.55353       -1.43089       -2.08050
C          0.53892       -0.71546        1.29377
N          0.97645       -1.21575        2.24183
C          0.13886        2.08642       -1.30284
H          0.75094        1.63590       -2.11625
H         -0.93510        1.98131       -1.55631
H          0.39665        3.16499       -1.24410
