13
Coordinates from ORCA-job run	Energy:      76.7222485
C          0.99728       -0.04329       -0.16539
H          0.84850        1.91989        0.78643
F         -1.60348       -0.57100        0.78897
Cl         2.67759        0.06982       -0.66220
C          0.38074        1.38626       -0.07302
H         -0.70452        1.39345        0.11594
C          0.33330       -0.92042       -1.15932
N         -0.17052       -1.62395       -1.93264
C          1.04264       -0.67290        1.16840
N          1.11746       -1.10861        2.23931
N          0.59955        2.17109       -1.26594
O          0.86008        3.33169       -1.16407
O          0.36470        1.71457       -2.34299
