14
Coordinates from ORCA-job run	Energy:      92.1705274
C          1.03000       -0.04465        0.08177
H          1.31144        1.98304       -0.61021
F         -1.61662       -0.42211       -0.37481
Cl         2.72763       -0.05565        0.49891
C          0.53738        1.42034       -0.04736
H         -0.40526        1.49511       -0.63764
C          0.93343       -0.69714       -1.24227
N          0.88973       -1.17333       -2.29752
C          0.39528       -0.78549        1.20064
N         -0.03558       -1.32323        2.13248
C          0.28094        2.08136        1.31055
H         -0.61606        1.61735        1.77728
H          1.14519        1.93893        1.98703
H          0.08560        3.16474        1.19669
