13
Coordinates from ORCA-job run	Energy:     110.3757015
C          0.50536        0.02702       -0.04047
H          1.65850        1.87409        0.08311
Br        -2.49200        0.14209        0.16952
H          4.09902       -0.88143        0.03109
C          0.61534        1.53472       -0.00876
H          0.04781        1.87590        0.88931
C          0.64699       -0.69978       -1.29525
N          0.73011       -1.28936       -2.28102
C          0.66008       -0.71938        1.19925
N          0.74837       -1.25601        2.21714
N          0.03759        2.09127       -1.22746
H          0.00475        3.12700       -1.14212
H         -0.94744        1.76504       -1.31571
