16
Coordinates from ORCA-job run	Energy:      79.3003090
C          0.10681       -0.09162       -0.05354
H          1.56888        1.59746       -0.17907
Cl        -1.66678       -0.30710       -0.08981
Cl         3.45156       -0.23679        0.27348
C          0.47580        1.42807       -0.07492
C          0.64447       -0.81765       -1.21886
N          1.01944       -1.34515       -2.17826
C          0.50518       -0.77101        1.19098
N          0.74683       -1.27025        2.20542
C          0.07131        2.10161        1.25659
H         -0.98634        1.87758        1.49467
H          0.70504        1.71050        2.08389
H          0.22182        3.19697        1.21289
N         -0.17232        2.07842       -1.21120
H          0.13788        3.06976       -1.29002
H         -1.20936        2.07193       -1.09258
