18
Coordinates from ORCA-job run	Energy:      51.3487919
C          1.12077       -0.02738        0.08983
H          1.74288        1.85621       -0.80102
F         -2.28515       -0.94755       -1.46037
F          2.40328       -0.28181        0.55540
C          0.96024        1.51315       -0.08524
C          0.93486       -0.72408       -1.23519
N          1.87615       -1.40937       -1.77282
C          0.13072       -0.61652        1.10649
H          0.27077       -0.14592        2.10262
H         -0.92161       -0.47239        0.78923
H          0.30764       -1.70793        1.21811
N          1.16749        2.19876        1.19449
H          1.11719        3.23357        1.04852
H          2.12563        1.98766        1.55636
C         -0.40315        1.92697       -0.66992
H         -0.56771        1.45620       -1.66174
H         -1.23593        1.64973        0.00758
H         -0.43230        3.02791       -0.81458
