15
Coordinates from ORCA-job run	Energy:     158.1448747
C          0.15722       -0.04920       -0.00232
H          1.58101        1.70923        0.15828
F         -1.21560       -0.11952       -0.06345
Br         3.55646       -0.19304        0.02847
C          0.50390        1.46098        0.00551
H         -0.03751        1.91750        0.86447
C          0.57296       -0.75075       -1.24317
N          0.88152       -1.32815       -2.20105
C          0.56758       -0.76327        1.29844
H          1.07843       -1.73267        1.12301
H          1.19696       -0.14123        1.97307
H         -0.36933       -0.97011        1.85308
N          0.04035        2.04795       -1.25203
H          0.09906        3.08850       -1.23917
H         -0.96618        1.80018       -1.36996
