17
Coordinates from ORCA-job run	Energy:      55.3995696
C          0.14856       -0.03788       -0.01618
H          1.67979        1.51130       -0.22442
Br        -3.23091       -0.71097       -0.57187
Cl         4.20647       -0.10311        0.31589
C          0.58070        1.44610       -0.04770
C          0.68186       -0.74513       -1.20133
N          1.10342       -1.29146       -2.12574
C          0.51844       -0.80448        1.25545
H          1.61596       -0.79273        1.43037
H          0.00236       -0.35927        2.12943
H          0.17257       -1.85571        1.17845
N          0.27951        2.12355        1.21911
H          0.52366        3.13736        1.12679
H          0.91352        1.75325        1.96279
N         -0.12362        2.11363       -1.14234
H          0.18571        3.11204       -1.20420
H         -1.15474        2.10180       -0.94953
