16
Coordinates from ORCA-job run	Energy:      64.6700908
C          1.11378       -0.03143        0.20637
H          1.48628        1.83113       -0.88149
Cl        -2.10026       -1.19880       -1.44834
F          2.38781       -0.20686        0.71569
C          0.87324        1.49400       -0.01486
C          1.11473       -0.76538       -1.07499
N          1.15650       -1.30872       -2.09613
C          0.12744       -0.63797        1.22298
H          0.21682       -0.10755        2.19358
H         -0.92852       -0.54839        0.89949
H          0.34832       -1.71359        1.39134
N          1.30507        2.23906        1.16647
H          1.16122        3.26219        1.00341
H          2.33443        2.10549        1.29326
C         -0.53367        1.85701       -0.29254
N         -1.62257        2.18671       -0.50943
