14
Coordinates from ORCA-job run	Energy:      97.4619700
C          0.03539       -0.08073        0.08074
H          1.48082        1.61604        0.47708
F         -1.32818       -0.13162        0.25806
F          2.81258        0.02517       -0.72308
C          0.46480        1.42495        0.06074
H         -0.22524        1.96652        0.74088
C          0.27469       -0.85643       -1.16385
N          0.44505       -1.49271       -2.12172
C          0.70277       -0.77872        1.29077
H          1.82051       -0.73696        1.31569
H          0.35551       -0.28658        2.22333
H          0.41784       -1.85063        1.31713
C          0.42492        2.08355       -1.24981
N          0.40400        2.59451       -2.29080
