16
Coordinates from ORCA-job run	Energy:      81.5847603
C          0.06553       -0.05529        0.12459
H          1.59698        1.61214        0.28288
F         -1.29834       -0.04916        0.32103
H          2.63748       -0.16909       -0.68797
C          0.52133        1.43237        0.04574
H         -0.05674        1.96717        0.82982
C          0.24101       -0.84393       -1.11968
N          0.34722       -1.42303       -2.10260
C          0.68610       -0.76746        1.33718
H          1.80111       -0.77325        1.37554
H          0.32128       -0.26531        2.25508
H          0.34466       -1.82348        1.34789
C          0.24199        2.06678       -1.31803
H          0.96304        1.66555       -2.06647
H         -0.79028        1.82853       -1.64216
H          0.37069        3.16933       -1.27278
