17
Coordinates from ORCA-job run	Energy:     103.6448252
C          0.42478       -0.03203        0.02607
H          1.73243        1.74088       -0.09546
Cl        -2.59014       -0.19581       -0.11420
Cl         3.67804       -0.34386       -0.16594
C          0.67186        1.51104       -0.01045
C          0.58326       -0.80468       -1.23492
N          0.63465       -1.40023       -2.22166
C          0.64200       -0.81731        1.32276
H          1.53616       -0.49297        1.89524
H         -0.25485       -0.66018        1.95885
H          0.71693       -1.92251        1.14008
C          0.10950        2.15764        1.25758
H         -0.95556        1.88998        1.40428
H          0.69088        1.81119        2.14295
H          0.20724        3.25752        1.19611
C         -0.02005        2.04007       -1.19490
N         -0.54407        2.53228       -2.11206
