15
Coordinates from ORCA-job run	Energy:     253.8615694
C          1.13536       -0.06896        0.07473
H          1.80408        1.95382       -0.01889
Br        -2.21852        0.06776       -0.27570
F          2.50064       -0.19678        0.08348
C          0.82034        1.46260        0.06661
H          0.23381        1.74422       -0.83837
C          0.79995       -0.68335       -1.21335
N          0.59295       -1.17716       -2.24006
C          0.63172       -0.90047        1.28460
H          1.52864       -1.10994        1.91259
H         -0.13765       -0.41506        1.91786
H          0.21149       -1.87992        0.97243
N          0.15414        2.01974        1.23361
O         -0.60336        2.93195        1.07853
O          0.59942        1.82412        2.32146
