16
Coordinates from ORCA-job run	Energy:      16.6954135
C          0.15786       -0.09109        0.02604
H          1.63492        1.52522       -0.13686
Cl        -3.16845       -0.49323       -0.43393
Cl         4.21708        0.09386        0.16592
C          0.54186        1.40201        0.01472
H          0.01590        1.88090       -0.84220
C          0.67258       -0.73761       -1.19449
N          1.08199       -1.24519       -2.14932
C          0.61856       -0.86049        1.26628
H          1.71723       -0.79076        1.39943
H          0.11212       -0.46302        2.16887
H          0.32690       -1.92832        1.17757
C          0.15136        2.14393        1.29187
H         -0.93342        2.02954        1.49741
H          0.73722        1.76247        2.15497
H          0.38747        3.22254        1.17902
