16
Coordinates from ORCA-job run	Energy:      14.0284120
C          0.98782       -0.02089        0.12756
H          0.90762        1.94267       -0.77317
F         -2.40247       -0.76155       -1.02532
Br         4.40578        0.41191        0.79445
C          0.33472        1.36810       -0.01307
H         -0.71442        1.26900       -0.36867
C          0.96312       -0.71278       -1.17183
N          0.94079       -1.25841       -2.19234
C          0.35358       -0.90551        1.20273
H          0.86421       -1.89202        1.22816
H          0.48085       -0.45056        2.20537
H         -0.72737       -1.06120        1.00465
C          0.34043        2.17276        1.28479
H         -0.29250        1.68688        2.05463
H          1.37698        2.28245        1.66955
H         -0.07976        3.18321        1.09344
