16
Coordinates from ORCA-job run	Energy:      94.7786727
C          0.13518       -0.09717        0.11515
H          1.65583        1.57736        0.20918
Cl        -1.64689       -0.21530        0.27154
H          2.78462       -0.11415       -0.61758
C          0.56250        1.41825        0.08346
C          0.42223       -0.83906       -1.13687
N          0.62067       -1.38858       -2.13873
N          0.74497       -0.77008        1.27653
H          1.74620       -1.04286        1.12442
H          0.21507       -1.64155        1.50224
C         -0.08244        2.11805        1.21151
N         -0.61686        2.65906        2.08490
C          0.17371        2.08550       -1.24426
H          0.82715        1.69029       -2.05347
H         -0.88066        1.86172       -1.49755
H          0.31988        3.18539       -1.20045
