14
Coordinates from ORCA-job run	Energy:      32.1844162
C          0.22300       -0.03353        0.01662
H          1.81176        1.46910       -0.14339
Cl        -3.12820       -0.03642        0.14343
F          3.79708       -0.26761       -0.52141
C          0.70269        1.42215       -0.07795
H          0.39650        1.93906        0.85884
C          0.61825       -0.84238       -1.15195
N          0.92627       -1.47774       -2.06895
N          0.69994       -0.65115        1.25173
H          1.73328       -0.81063        1.20350
H          0.21989       -1.57099        1.38029
N          0.11737        2.10692       -1.21564
O         -0.58767        3.05556       -1.04343
O          0.37346        1.76189       -2.32910
