15
Coordinates from ORCA-job run	Energy:     129.3732939
C          0.28396       -0.00127        0.06166
H          1.70672        1.79432       -0.13453
F         -1.08691       -0.08271        0.19263
F          3.05741       -0.01385       -0.41817
C          0.62455        1.52060       -0.06868
C          0.53687       -0.81940       -1.14397
N          0.71550       -1.49510       -2.06585
N          0.87548       -0.56948        1.28851
H          1.81992       -1.01224        1.20546
H          0.22572       -1.29317        1.65538
N          0.09324        2.21467        1.09822
H          0.60985        1.89394        1.94815
H         -0.90741        1.94207        1.23491
C          0.00047        2.07345       -1.27408
N         -0.48195        2.49844       -2.24515
