17
Coordinates from ORCA-job run	Energy:     124.1102768
C          0.21777       -0.08776        0.06427
H          1.68465        1.64929        0.14131
Cl        -1.56841       -0.26409        0.12368
H          2.83415       -0.09626       -0.41333
C          0.59001        1.44042        0.05236
C          0.55725       -0.79787       -1.19140
N          0.81338       -1.37264       -2.16575
N          0.76118       -0.75060        1.25515
H          1.78232       -0.97030        1.23227
H          0.23954       -1.63630        1.41035
C         -0.05773        2.13061        1.27149
H         -1.16337        2.10512        1.19658
H          0.23515        1.60349        2.20551
H          0.25378        3.19030        1.36246
N          0.13731        2.04297       -1.20720
H          0.14804        3.08569       -1.16585
H         -0.83377        1.73285       -1.42320
