16
Coordinates from ORCA-job run	Energy:     164.3306482
C          0.26129       -0.04756        0.22198
H          1.59494        1.74352        0.31610
F         -1.05448       -0.26188        0.58530
F          2.86665        0.21424       -0.99619
C          0.53068        1.50157        0.06911
C          0.34257       -0.82046       -1.03686
N          0.39513       -1.46464       -2.00057
N          1.10739       -0.60145        1.28986
H          2.10881       -0.70952        1.00826
H          0.74300       -1.53033        1.58933
N         -0.29054        2.25197        1.01627
H          0.08821        2.13103        1.97930
H         -1.27716        1.90362        1.00235
N          0.29551        2.01493       -1.27487
O          1.12843        2.68905       -1.80667
O         -0.75263        1.84485       -1.81825
