16
Coordinates from ORCA-job run	Energy:     126.1043832
C          0.18360       -0.10718       -0.03202
H          1.57639        1.66550       -0.16452
Cl        -1.58238       -0.34637       -0.15428
F          2.96180       -0.00409        0.00657
C          0.50153        1.43084       -0.05263
C          0.70931       -0.82366       -1.22531
N          1.10524       -1.41051       -2.14475
N          0.60531       -0.73681        1.23588
H          1.60262       -1.01668        1.35568
H          0.06549       -1.61548        1.34679
C          0.07235        2.08821        1.25517
H         -0.98774        1.86913        1.48627
H          0.69801        1.69286        2.08882
H          0.22139        3.18331        1.20435
C         -0.14405        2.07029       -1.22162
N         -0.62257        2.62135       -2.12008
