14
Coordinates from ORCA-job run	Energy:     128.8620990
C          1.22254       -0.06199       -0.00512
H          1.84070        1.69619        1.05964
Cl        -2.23409       -0.20564        0.30503
F          2.56082       -0.17145       -0.33288
C          1.04397        1.45651        0.32727
H          1.25454        2.01770       -0.60793
C          0.52521       -0.54752       -1.22490
N          0.04165       -0.93975       -2.20545
N          0.97278       -0.92556        1.16483
H          1.72658       -1.65071        1.21505
H          0.07651       -1.46407        1.09055
N         -0.20512        1.93825        0.90175
O         -0.81460        2.78261        0.31505
O         -0.37424        1.83446        2.08029
