14
Coordinates from ORCA-job run	Energy:      41.0518113
C          1.12249        0.09535        0.12288
H          0.91070        1.96289       -0.95342
Br        -2.80184       -0.86583       -0.88859
F          4.09004        0.42742        0.48597
C          0.44488        1.45705       -0.07977
H         -0.63907        1.33144       -0.28905
C          1.05008       -0.72648       -1.09668
N          0.99316       -1.37266       -2.05781
N          0.55286       -0.61595        1.27074
H          1.24685       -1.32268        1.60352
H         -0.33429       -1.10499        1.00494
N          0.61879        2.31260        1.09175
H          1.63793        2.41115        1.30451
H          0.13781        1.89017        1.91842
