15
Coordinates from ORCA-job run	Energy:     116.2772386
C          1.30927        0.05086        0.09866
H          1.72120        2.04850       -0.53869
F         -2.51643       -0.23097        0.00504
H          2.28957        0.04561        0.59202
C          0.88845        1.51995       -0.06637
C          1.48440       -0.61199       -1.20984
N          1.63846       -1.11337       -2.24191
N          0.41612       -0.68849        0.99189
H          0.61628       -1.70869        0.97629
H         -0.54577       -0.61188        0.66942
C          0.68525        2.14923        1.25748
N          0.60182        2.62122        2.31200
N         -0.24283        1.67454       -0.98158
H         -0.61386        2.64426       -0.97753
H         -1.02444        1.09667       -0.68356
