15
Coordinates from ORCA-job run	Energy:     212.7941857
C          1.18893       -0.04670       -0.03427
H          1.70610        2.07165       -0.01296
F         -1.67609        0.16626       -0.07189
Cl         2.95906       -0.13818       -0.24714
C          0.77415        1.48263       -0.02030
C          0.66073       -0.87956       -1.14678
N          0.27752       -1.57053       -1.99484
N          0.86527       -0.69317        1.24269
H          1.16535       -1.69231        1.22255
H         -0.16717       -0.71553        1.38936
C          0.10337        1.93025        1.23624
N         -0.41873        2.29573        2.20610
N          0.03342        1.91543       -1.20836
O         -0.84555        2.72383       -1.11994
O          0.44581        1.63889       -2.29327
