15
Coordinates from ORCA-job run	Energy:      91.1654107
C          0.19000       -0.07129       -0.08034
H          1.58176        1.58483       -0.34157
Br        -1.69747       -0.43712        0.20116
Cl         3.27386       -0.21665        0.56815
C          0.49754        1.44051       -0.12856
H          0.70554       -0.50849        0.79507
C          0.68951       -0.75501       -1.36786
H         -0.09552       -0.69453       -2.14712
H          1.61731       -0.27854       -1.77483
H          0.93952       -1.81979       -1.17374
C          0.26669        2.08262        1.17678
N          0.07221        2.58571        2.20594
N         -0.25362        2.08709       -1.19642
H         -0.04156        3.10788       -1.20692
H         -1.27397        1.97255       -1.02897
