16
Coordinates from ORCA-job run	Energy:      48.3114925
C          0.98582        0.13504        0.01104
H          1.60476        2.09353       -0.72416
Cl        -2.60049       -0.83323       -0.32678
H          1.89199        0.04295        0.64913
C          0.71827        1.64450       -0.22311
H          0.13524       -0.32033        0.55977
C          1.24162       -0.67391       -1.26109
H          0.33948       -0.71458       -1.90301
H          2.09084       -0.24356       -1.83227
H          1.49155       -1.71997       -0.98438
N          0.55054        2.31502        1.07267
H          1.41716        2.20054        1.64700
H         -0.25109        1.89189        1.59560
N         -0.44927        1.88125       -1.06737
O         -0.43653        1.54442       -2.21276
O         -1.38324        2.50152       -0.65856
