16
Coordinates from ORCA-job run	Energy:      45.8519279
C          0.19870       -0.07624       -0.11399
H          1.51698        1.62306       -0.39726
Cl        -1.51105       -0.46458        0.24712
Cl         3.71835       -0.16798        1.11581
C          0.44093        1.45037       -0.16185
H          0.81697       -0.50919        0.70073
C          0.61655       -0.75401       -1.41988
H          0.01590       -0.37631       -2.27382
H          1.69228       -0.56235       -1.62181
H          0.46894       -1.85173       -1.33834
N          0.14451        2.05648        1.13741
H          0.35884        3.07951        1.09369
H          0.77693        1.64115        1.85981
N         -0.36859        2.08227       -1.20636
H         -0.11043        3.09243       -1.28344
H         -1.38352        2.02930       -0.95981
