17
Coordinates from ORCA-job run	Energy:      24.7441858
C          0.67544        0.04613       -0.03295
H          1.71255        1.83516       -0.69250
Br        -3.11399       -0.89758       -0.47171
Cl         3.78370       -0.41235        1.40034
C          0.73913        1.57181       -0.21880
H         -0.27669       -0.25425        0.45324
C          0.89480       -0.75317       -1.31475
H          0.06838       -0.58847       -2.03574
H          1.86127       -0.46891       -1.78138
H          0.92603       -1.83397       -1.06564
N          0.66622        2.21163        1.09402
H          0.77102        3.24636        0.98285
H          1.46470        1.88123        1.68320
C         -0.39936        2.09316       -1.10555
H         -0.34218        1.66088       -2.12449
H         -1.38481        1.84433       -0.65849
H         -0.32461        3.19662       -1.20868
