15
Coordinates from ORCA-job run	Energy:     117.8814785
C          0.69158        0.00547       -0.10556
H          1.67784        1.89267       -0.34264
F         -1.98561       -0.20813        0.06054
Br         3.55622       -0.40019        0.73999
C          0.64711        1.53959       -0.13225
H          0.37931       -0.53852        0.81463
C          0.72802       -0.74806       -1.42814
H         -0.26046       -0.73683       -1.93658
H          1.50030       -0.30277       -2.08400
H          1.00085       -1.80309       -1.21324
C          0.25333        2.05518        1.19204
N         -0.05140        2.49102        2.22113
N         -0.24074        2.05957       -1.17730
H         -0.25674        3.10500       -1.13890
H         -1.21686        1.72366       -1.03619
