16
Coordinates from ORCA-job run	Energy:      47.2553537
C          0.91434       -0.00738       -0.05266
H          1.68550        1.93496       -0.61545
Cl        -3.05417       -0.69093       -0.01502
Br         2.52709       -0.46730        0.94030
C          0.75954        1.53490       -0.14331
H          0.03622       -0.44405        0.46971
C          1.01236       -0.65493       -1.43663
H          0.08529       -0.47433       -2.02056
H          1.87962       -0.24808       -1.99895
H          1.13710       -1.75330       -1.32963
N          0.59030        2.16471        1.16341
O          0.51717        3.35395        1.23771
O          0.49852        1.51358        2.16107
N         -0.37770        1.87794       -1.00070
H         -0.41589        2.91287       -1.14447
H         -1.26834        1.57057       -0.54919
