17
Coordinates from ORCA-job run	Energy:      38.1971709
C          0.14653       -0.05093       -0.07213
H          1.57727        1.58080       -0.23772
Br        -1.74811       -0.37437        0.24696
Cl         3.87695       -0.47373        0.54624
C          0.47673        1.46717       -0.10989
H          0.70280       -0.49993        0.77950
C          0.58018       -0.80065       -1.33515
H          0.00410       -0.46567       -2.22144
H          1.66335       -0.64836       -1.52384
H          0.39607       -1.88782       -1.20435
N          0.11012        2.08249        1.16239
O         -0.67190        2.98536        1.21152
O          0.61434        1.69632        2.17333
C         -0.18280        2.19290       -1.30291
H          0.17228        1.78028       -2.26859
H         -1.28926        2.11481       -1.25904
H          0.09841        3.26750       -1.28964
