15
Coordinates from ORCA-job run	Energy:      -1.2152488
C          0.72734       -0.06436       -0.00619
H          1.18230        1.94214       -0.69330
Cl        -3.02940       -0.71090        0.06720
Cl         4.13208        0.08951        0.86758
C          0.38199        1.42038       -0.12525
H         -0.05783       -0.59718        0.57198
H         -0.58191        1.54197       -0.66567
C          0.87671       -0.71597       -1.37468
H         -0.07781       -0.65248       -1.93937
H          1.68164       -0.21384       -1.95228
H          1.14718       -1.78440       -1.24493
C          0.26407        2.05573        1.25523
H         -0.54472        1.56547        1.83810
H          1.22341        1.95826        1.80659
H          0.02109        3.13433        1.14916
