14
Coordinates from ORCA-job run	Energy:      20.8697414
C          1.04254        0.03425       -0.12221
H          1.86182        1.88745       -0.91529
Cl        -2.84480       -0.46470        0.62221
Br         2.69513       -0.44712        0.77614
C          0.99355        1.55790       -0.30431
H          0.19655       -0.28913        0.52090
H          1.05912        2.04961        0.69157
C          0.96066       -0.70528       -1.45853
H         -0.00007       -0.48166       -1.96903
H          1.80055       -0.40694       -2.12104
H          1.01231       -1.80094       -1.28584
N         -0.23970        1.97200       -0.96602
H         -0.22743        3.01170       -1.07656
H         -1.05769        1.72259       -0.36463
