15
Coordinates from ORCA-job run	Energy:      14.2773438
C          0.24511       -0.07451       -0.04522
H          1.65908        1.54907       -0.38477
F         -1.09294       -0.23961        0.27081
F          3.77426       -0.05148        0.41336
C          0.57656        1.42278       -0.16718
H          0.85301       -0.49081        0.78698
H          0.36406        1.90498        0.81158
C          0.57407       -0.87149       -1.30874
H         -0.04344       -0.53707       -2.16723
H          1.64950       -0.76203       -1.56410
H          0.36039       -1.94677       -1.13330
C         -0.23682        2.14901       -1.24005
H         -0.01707        1.74648       -2.25010
H         -1.32403        2.05528       -1.03335
H          0.03167        3.22605       -1.23765
