15
Coordinates from ORCA-job run	Energy:      56.2879661
C          0.82720        0.06539       -0.02446
H          1.68467        1.94763       -0.59539
Cl        -2.22935       -1.40011        0.17452
Br         2.38778       -0.43994        1.02166
C          0.73702        1.59247       -0.14698
H         -0.04903       -0.28664        0.52362
C          0.87959       -0.63272       -1.38235
H         -0.02280       -0.37930       -1.97757
H          1.79361       -0.34964       -1.94671
H          0.86773       -1.72602       -1.22501
N          0.52185        2.19497        1.16972
H          0.67792        3.22553        1.10487
H          1.21213        1.83044        1.86061
C         -0.34269        2.02035       -1.04721
N         -1.17898        2.34151       -1.77827
