14
Coordinates from ORCA-job run	Energy:      15.2234690
C          0.41580       -0.02198       -0.11784
H          1.69578        1.69718       -0.47202
Br        -3.01740       -0.42906        0.75808
Br         4.22335       -0.43372        0.56420
C          0.63538        1.48893       -0.20960
H          1.06233       -0.43830        0.68396
H          0.42369        1.94373        0.78337
C          0.71936       -0.73882       -1.43023
H          0.04911       -0.37281       -2.23598
H          1.77709       -0.57374       -1.72589
H          0.54777       -1.82761       -1.30001
N         -0.24398        2.08210       -1.21140
H         -0.06480        3.11173       -1.24272
H         -1.23881        1.93620       -0.92476
