12
Coordinates from ORCA-job run	Energy:       1.1239747
C          0.22258       -0.05719       -0.01463
H          1.52168        1.66318       -0.32058
Br        -1.63143       -0.40843        0.44103
Cl         4.11331       -0.12337        0.32907
C          0.45777        1.45015       -0.08315
H          0.86745       -0.48818        0.78124
H          0.21751        1.91352        0.89709
H         -0.18527        1.90975       -0.86384
C          0.55988       -0.72745       -1.34482
H         -0.08064       -0.32391       -2.15800
H          1.62529       -0.55231       -1.60504
H          0.39317       -1.82279       -1.26773
