15
Coordinates from ORCA-job run	Energy:     140.0460746
C          0.54742        0.00970       -0.10523
H          1.56345        1.83603       -0.55761
Br        -2.36480       -0.61334       -0.09549
Cl         3.21745       -0.11470        0.95352
C          0.57773        1.53111       -0.16310
H          0.30885       -0.51631        0.84700
C          0.83912       -0.77622       -1.36789
H          0.04568       -0.55330       -2.10404
H          1.83311       -0.49396       -1.77362
H          0.83445       -1.86359       -1.13840
N          0.37719        2.06889        1.17773
H          0.40516        3.11089        1.13867
H          1.18208        1.77627        1.77758
C         -0.41919        2.08835       -1.08200
N         -1.18683        2.57305       -1.79278
