14
Coordinates from ORCA-job run	Energy:      10.7954620
C         -0.01463       -0.10456       -0.01739
H          1.58495        1.37122        0.09140
F         -1.39892       -0.12712       -0.04086
Cl         4.33640        0.53179       -0.54812
C          0.47434        1.34679        0.07306
H          0.33822       -0.67269        0.87092
H          0.13075        1.90358       -0.82791
C          0.51793       -0.78753       -1.27462
H          0.16857       -0.25329       -2.18396
H          1.62839       -0.80192       -1.26611
H          0.15214       -1.83523       -1.31481
N         -0.02870        1.98581        1.27144
O         -0.71867        2.95615        1.18944
O          0.26873        1.56313        2.34830
