15
Coordinates from ORCA-job run	Energy:      97.8745253
C          0.91395       -0.07024       -0.02616
H          1.71705        1.86154       -0.62524
F         -1.89200        0.55638        0.30959
H          1.87308       -0.22271        0.52038
C          0.76472        1.46993       -0.22098
H          0.12333       -0.48675        0.63138
C          0.92806       -0.91561       -1.29627
H         -0.09263       -0.95189       -1.72993
H          1.64267       -0.52257       -2.04471
H          1.21306       -1.95640       -1.03509
C          0.57126        2.03540        1.13347
N          0.39519        2.46244        2.19485
N         -0.29699        1.89514       -1.14135
O         -0.84647        2.94082       -0.95437
O         -0.33479        1.43612       -2.24332
