15
Coordinates from ORCA-job run	Energy:      17.2180198
C          0.29403       -0.05032       -0.03124
H          1.69149        1.58529       -0.35557
Br        -1.56280       -0.35290        0.46418
H          3.56072       -0.29509        0.17314
C          0.60639        1.45425       -0.15303
H          0.92054       -0.45513        0.79314
H          0.38125        1.93849        0.82161
C          0.62727       -0.83752       -1.30037
H         -0.00996       -0.51784       -2.15009
H          1.69488       -0.69713       -1.57163
H          0.44930       -1.91955       -1.12577
C         -0.18169        2.18095       -1.24679
H          0.05900        1.77371       -2.24975
H         -1.27431        2.10099       -1.06876
H          0.09336        3.25673       -1.24187
