13
Coordinates from ORCA-job run	Energy:      22.1460847
C          1.20628        0.05781       -0.24388
H          1.02199        2.00148        0.64724
Cl        -1.80503       -0.45531        1.47920
F          2.55583        0.22619       -0.48716
C          0.53118        1.41778       -0.14831
H          1.08275       -0.43686        0.73671
H         -0.51417        1.26760        0.14826
C          0.59960       -0.82645       -1.31939
H         -0.45794       -1.01391       -1.08338
H          0.68746       -0.34582       -2.30855
H          1.13403       -1.78863       -1.35005
C          0.61091        2.17240       -1.40754
N          0.68784        2.76625       -2.39794
