15
Coordinates from ORCA-job run	Energy:      11.9598545
C          0.25523       -0.02501       -0.08501
H          1.63139        1.62681       -0.44128
F         -1.07415       -0.21907        0.25091
Br         4.04849       -0.63713        0.76178
C          0.55551        1.47948       -0.20183
H          0.88330       -0.43450        0.73488
H          0.35617        1.95027        0.78535
C          0.58097       -0.80578       -1.35879
H         -0.05610       -0.47826       -2.20549
H          1.64977       -0.67210       -1.62952
H          0.39258       -1.88653       -1.18785
C         -0.29702        2.19738       -1.24941
H         -0.09643        1.80563       -2.26721
H         -1.37671        2.08262       -1.01576
H         -0.04877        3.27957       -1.24604
