14
Coordinates from ORCA-job run	Energy:      16.1462787
C          0.95782       -0.07393        0.03570
H          1.37701        1.94265       -0.65371
Cl        -2.72626       -0.38955        0.18862
H          1.94549       -0.18169        0.53533
C          0.59167        1.41723       -0.06635
H          0.19291       -0.60641        0.63970
H         -0.37568        1.51747       -0.60499
C          1.02122       -0.72209       -1.34392
H          0.03473       -0.64400       -1.84992
H          1.79295       -0.22761       -1.97114
H          1.27931       -1.79667       -1.23896
N          0.46514        2.05558        1.23221
O          0.17956        3.21331        1.28872
O          0.62716        1.44311        2.24486
