16
Coordinates from ORCA-job run	Energy:      55.1106389
C          0.14002       -0.09313        0.02802
H          1.45083        1.65317       -0.12202
F         -1.21584       -0.35593        0.12116
Cl         4.09247       -0.15882        0.30925
C          0.35422        1.44456       -0.04836
H         -0.02960        1.93292        0.86623
C          0.66652       -0.75659       -1.25976
H          0.10388       -0.38414       -2.14276
H          1.74304       -0.54513       -1.40935
H          0.51602       -1.85516       -1.21576
N          0.78925       -0.66594        1.20325
O          1.14248        0.03938        2.10324
O          0.80190       -1.84775        1.35320
N         -0.30560        2.02192       -1.21121
H         -0.09138        3.04582       -1.24664
H         -1.34037        1.91663       -1.11149
