15
Coordinates from ORCA-job run	Energy:     194.4031489
C          0.67682       -0.05273        0.01091
H          1.55035        1.97300       -0.07721
Cl        -2.00295       -0.39100        0.17689
F          3.28517        0.13156        0.10988
C          0.56818        1.48566        0.00780
H         -0.04901        1.73349       -0.87314
C          0.78988       -0.78562       -1.32594
H         -0.07936       -0.47912       -1.94472
H          1.72870       -0.55827       -1.87176
H          0.70762       -1.86811       -1.15029
N          0.84950       -0.81122        1.25061
O          0.81609       -0.26047        2.30556
O          0.89443       -2.00485        1.23193
C         -0.12687        2.06362        1.16394
N         -0.66825        2.58356        2.04227
