15
Coordinates from ORCA-job run	Energy:      21.0314947
C          0.05039       -0.10299       -0.00112
H          1.54183        1.50600       -0.09727
Br        -1.88189       -0.28931        0.12271
Cl         4.08533       -0.27842        0.34699
C          0.43791        1.39566       -0.00901
H         -0.01687        1.86771       -0.90993
C          0.52127       -0.77046       -1.29916
H          0.04433       -0.28714       -2.17857
H          1.62392       -0.68577       -1.40949
H          0.24950       -1.84851       -1.30567
C          0.65894       -0.80666        1.14097
N          1.13490       -1.36060        2.03907
N         -0.01377        2.09540        1.18011
O         -0.77875        3.00752        1.08138
O          0.41708        1.80661        2.25555
