16
Coordinates from ORCA-job run	Energy:     114.7929975
C          0.15887       -0.03173        0.02219
H          1.58988        1.60629       -0.34463
Br        -1.74772       -0.32158        0.31188
Cl         3.67821        0.11686        0.19094
C          0.51259        1.49031       -0.12231
C          0.59685       -0.78832       -1.26112
H         -0.24379       -0.82242       -1.98571
H          1.43067       -0.27206       -1.79056
H          0.93096       -1.82751       -1.05821
C          0.78427       -0.61598        1.22345
N          1.21134       -1.08412        2.19298
N          0.23553        2.26259        1.08672
H          0.91979        2.00373        1.83219
H         -0.73526        2.08836        1.42587
C         -0.19395        2.08611       -1.26226
N         -0.73602        2.52727       -2.18550
