15
Coordinates from ORCA-job run	Energy:      36.9532050
C          1.28217        0.08934       -0.00148
H          1.74509        1.88799       -1.15519
F         -2.78723       -0.57384       -0.96968
Br         3.14642       -0.30145        0.38110
C          1.15104        1.61260       -0.25670
H          1.58163        2.16735        0.60580
C          0.86740       -0.74587       -1.22136
H         -0.19962       -0.60146       -1.47961
H          1.48601       -0.46960       -2.10157
H          1.02207       -1.82758       -1.01645
C          0.49104       -0.31384        1.17200
N         -0.13403       -0.63065        2.09444
N         -0.22889        2.06559       -0.43996
H         -0.78286        1.91815        0.43479
H         -0.68813        1.57451       -1.23934
