15
Coordinates from ORCA-job run	Energy:      18.6735477
C          0.95001       -0.05486        0.09578
H          1.00491        1.95691       -0.72159
Cl        -3.01800       -0.53416       -0.26890
Cl         4.27475        0.16655        0.66623
C          0.42865        1.38712        0.04011
H         -0.64336        1.39364       -0.25379
C          0.85539       -0.73714       -1.26822
H         -0.20142       -0.80229       -1.60503
H          1.43845       -0.16426       -2.01916
H          1.28012       -1.76222       -1.20991
C          0.23406       -0.84458        1.11102
N         -0.32602       -1.46468        1.91176
N          0.57705        2.04067        1.33676
H          0.22115        3.02092        1.26005
H          1.59092        2.08117        1.58818
