19
Coordinates from ORCA-job run	Energy:      33.3844030
C          0.07651       -0.11346       -0.01898
H          1.50312        1.54106       -0.20374
F         -1.29006       -0.29242        0.11856
Br         4.25857       -0.15700        0.41187
C          0.40510        1.41297       -0.07219
C          0.54258       -0.85683       -1.28101
H          0.01489       -0.49661       -2.18578
H          1.63758       -0.73153       -1.42931
H          0.32130       -1.94257       -1.19180
C          0.73671       -0.74603        1.13911
N          1.25013       -1.24409        2.04826
C          0.00827        2.12701        1.23521
H         -1.08319        2.03685        1.41971
H          0.55444        1.70259        2.10350
H          0.27192        3.20553        1.17914
C         -0.29880        2.12184       -1.24456
H          0.02415        1.71388       -2.22206
H         -1.40247        2.02481       -1.15730
H         -0.04004        3.20243       -1.24936
