16
Coordinates from ORCA-job run	Energy:     178.9876987
C          0.12492       -0.08213       -0.04639
H          1.59829        1.61671       -0.17915
F         -1.25271       -0.15073       -0.06346
Cl         3.38007       -0.17268        0.22050
C          0.50910        1.42564       -0.04553
C          0.64402       -0.80123       -1.32457
H         -0.23992       -1.06127       -1.94022
H          1.29006       -0.15614       -1.96948
H          1.21149       -1.73721       -1.12722
C          0.44714       -0.78522        1.20790
N          0.64805       -1.26895        2.23899
C          0.15664        2.08381        1.23143
N         -0.08991        2.57318        2.24715
N         -0.17102        2.07226       -1.15856
H          0.01291        3.09770       -1.13413
H         -1.20031        1.91878       -1.06965
