18
Coordinates from ORCA-job run	Energy:      53.8752126
C          1.20411        0.01372        0.12165
H          1.33229        1.98208       -0.81831
F         -2.87366       -0.78869       -0.66042
Cl         2.91254        0.07261        0.66651
C          0.67045        1.46922       -0.08375
C          1.18035       -0.77120       -1.20436
H          0.14359       -0.88568       -1.58756
H          1.78517       -0.24808       -1.97553
H          1.60318       -1.78879       -1.06175
C          0.38824       -0.74793        1.18348
H          0.79638       -1.77226        1.32342
H          0.43512       -0.22636        2.16288
H         -0.67555       -0.83722        0.88232
N          0.68015        2.22092        1.17281
H          0.35517        3.20056        1.00258
H          1.65194        2.29130        1.54816
C         -0.72540        1.46563       -0.65323
N         -1.31586        2.55979       -0.96686
