16
Coordinates from ORCA-job run	Energy:      66.7680208
C          1.19268        0.00066       -0.06687
H          1.17769        2.07802        0.64428
F         -2.12570       -0.18261        0.17279
Cl         2.96058        0.18703       -0.26243
C          0.53545        1.41100       -0.00237
H         -0.43760        1.37144        0.52052
C          0.66659       -0.84630       -1.24366
H         -0.42550       -0.99374       -1.19166
H          0.89605       -0.35394       -2.21369
H          1.14644       -1.84945       -1.24592
C          0.90542       -0.73990        1.25334
H          1.40998       -1.72910        1.27475
H          1.22711       -0.13389        2.12764
H         -0.18230       -0.92907        1.36140
C          0.30519        2.06354       -1.28527
N          0.08825        2.54126       -2.31038
