19
Coordinates from ORCA-job run	Energy:      88.6793626
C          0.23469        0.12762        0.04982
H          3.21018        0.88016       -0.44624
Cl        -2.35592       -3.02852        0.10390
H          3.89368        0.90476       -0.62431
C          0.30847        1.48926        0.03109
C          0.11858       -0.72358       -1.17459
H         -0.71740       -1.42406       -1.03823
H         -0.05317       -0.15946       -2.09784
H          1.02690       -1.33321       -1.29043
C          0.23218       -0.65866        1.33176
H          1.10931       -1.31914        1.36453
H          0.23252       -0.02316        2.23266
H         -0.65878       -1.31003        1.34796
C          0.39933        2.24316        1.25370
N          0.47292        2.88072        2.21446
C          0.30932        2.33910       -1.21403
H          1.00257        3.19655       -1.09446
H          0.62078        1.79233       -2.10682
H         -0.69704        2.76166       -1.39410
