17
Coordinates from ORCA-job run	Energy:      23.7229750
C          0.15740       -0.03255       -0.03172
H          1.80122        1.40479       -0.04930
Cl        -3.26301        0.07185        0.14414
F          4.05551       -0.18120       -0.00181
C          0.68947        1.40929       -0.03966
H          0.34966        1.93346        0.88213
C          0.60833       -0.81658       -1.26990
H          0.17088       -1.83721       -1.25081
H          0.25671       -0.31500       -2.19518
H          1.71539       -0.89967       -1.30228
C          0.57371       -0.76112        1.24872
H          1.67950       -0.84059        1.31681
H          0.19554       -0.21233        2.13709
H          0.13615       -1.78178        1.26433
N          0.19635        2.13581       -1.20463
H          0.57326        3.11035       -1.17440
H         -0.84641        2.19190       -1.15675
