19
Coordinates from ORCA-job run	Energy:      61.3098311
C          0.18079       -0.06302        0.05642
H          1.78609        1.40600       -0.16691
Br        -3.21983        0.27316        0.17453
Br         4.39715       -0.37117       -0.07372
C          0.68323        1.40847       -0.02352
C          0.49716       -0.87379       -1.21093
H         -0.14118       -0.54199       -2.05263
H          1.56762       -0.76759       -1.48914
H          0.27745       -1.95079       -1.05490
C          0.71903       -0.79950        1.29279
H          1.81597       -0.94479        1.23319
H          0.47523       -0.24733        2.22389
H          0.22805       -1.79269        1.37087
N          0.40943        2.08861        1.24920
H         -0.62293        2.13240        1.42220
H          0.79551        3.06012        1.22058
N          0.07300        2.13357       -1.13756
O         -0.60234        3.10109       -0.94409
O          0.31198        1.81728       -2.26349
