19
Coordinates from ORCA-job run	Energy:     120.5950320
C         -0.03057       -0.10963       -0.00366
H          1.60863        1.24585       -0.09959
Cl        -1.82072       -0.09935       -0.08029
Cl         3.73285        0.08012       -0.39946
C          0.52628        1.33391       -0.02822
C          0.51908       -0.92041       -1.18620
H         -0.15983       -1.76571       -1.41219
H          0.62959       -0.32505       -2.09977
H          1.52703       -1.30377       -0.95050
C          0.42521       -0.79489        1.29191
H          1.49945       -0.56124        1.45601
H         -0.15442       -0.41771        2.15781
H          0.32104       -1.88992        1.23079
C          0.21080        2.06933        1.19913
N         -0.08187        2.64458        2.15756
C          0.04312        2.17915       -1.21041
H          0.21502        1.69061       -2.17960
H         -1.03757        2.40601       -1.12270
H          0.59832        3.13638       -1.22918
