15
Coordinates from ORCA-job run	Energy:       5.2961390
C          0.19872       -0.00231       -0.01232
H          1.91710        1.35038        0.02628
Cl        -3.27751        0.34323       -0.08733
F          4.16029       -0.36374        0.08707
C          0.80744        1.40170        0.00307
H          0.45254        1.95887        0.89575
H          0.49012        1.96170       -0.90157
C          0.62122       -0.77144       -1.26606
H          0.13143       -1.76779       -1.28136
H          0.30320       -0.21710       -2.17472
H          1.72273       -0.90881       -1.29324
C          0.56656       -0.77458        1.25638
H          1.66652       -0.91225        1.32989
H          0.21033       -0.22352        2.15228
H          0.07716       -1.77151        1.24800
