17
Coordinates from ORCA-job run	Energy:      51.4756916
C          0.07749       -0.04060        0.07588
H          1.81740        1.26368        0.43331
Cl        -1.70828        0.11909        0.04599
H          3.65424       -0.07629       -0.25810
C          0.74566        1.36459        0.15252
H          0.71979        1.82681       -0.86061
C          0.49331       -0.73458       -1.23036
H          0.00971       -1.73153       -1.31342
H          0.16381       -0.12726       -2.10167
H          1.59327       -0.86406       -1.28843
C          0.49261       -0.92884        1.26529
H          1.59488       -1.08200        1.26675
H          0.20082       -0.48660        2.23790
H          0.01459       -1.92975        1.18645
N          0.07579        2.26551        1.06788
O         -0.39817        3.28707        0.65689
O         -0.00595        2.01187        2.23158
