16
Coordinates from ORCA-job run	Energy:      81.6082337
C          0.36461       -0.02944        0.00721
H          1.75496        1.71987       -0.30147
Br        -2.66474        0.04536       -0.23416
F          3.31900       -0.03676        0.28286
C          0.70414        1.48800       -0.02015
H          0.06015        1.92944       -0.79568
C          0.73010       -0.77978       -1.28596
H          0.13572       -1.71513       -1.33693
H          0.45144       -0.16554       -2.16884
H          1.80330       -1.05359       -1.37704
C          0.55433       -0.85192        1.29652
H          1.59677       -1.12392        1.56350
H          0.09205       -0.31879        2.15045
H         -0.01647       -1.79751        1.18128
C          0.37949        2.18504        1.23829
N          0.14773        2.71417        2.24544
