20
Coordinates from ORCA-job run	Energy:      51.0977712
C          0.06457       -0.13972        0.05374
H          1.50349        1.49647       -0.07961
F         -1.30813       -0.31141        0.14950
H          3.70854        0.08052       -0.11108
C          0.39926        1.38373       -0.00230
C          0.54905       -0.83279       -1.23200
H          0.03365       -0.41665       -2.12359
H          1.64424       -0.70041       -1.36358
H          0.32669       -1.92116       -1.19659
C          0.72055       -0.83293        1.26184
H          1.82374       -0.71367        1.23689
H          0.33504       -0.42968        2.21942
H          0.48258       -1.91839        1.25439
C         -0.05940        2.15449        1.25114
H         -1.15775        2.06723        1.38583
H          0.45186        1.78715        2.16321
H          0.20148        3.22907        1.14723
N         -0.20312        1.98857       -1.19297
H          0.10026        2.98668       -1.27767
H         -1.24721        1.96000       -1.12870
