18
Coordinates from ORCA-job run	Energy:      26.6347916
C          0.01145       -0.08713       -0.00135
H          1.63914        1.37978        0.02905
Cl        -1.77932       -0.10882       -0.05016
F          4.01755       -0.05397        0.16597
C          0.52715        1.37622        0.04774
H          0.16976        1.91170       -0.85915
C          0.52877       -0.75492       -1.28528
H          0.15848       -1.80027       -1.35869
H          0.17713       -0.20055       -2.18165
H          1.64000       -0.77555       -1.29881
C          0.48492       -0.90400        1.21462
H          1.59394       -0.91158        1.27493
H          0.07845       -0.49129        2.16029
H          0.12991       -1.95379        1.13521
C          0.07221        2.17922        1.27067
H         -1.03467        2.23414        1.32163
H          0.46341        1.73760        2.21005
H          0.46821        3.21372        1.19644
