15
Coordinates from ORCA-job run	Energy:      45.3129453
C          1.18264        0.00912        0.13313
H          0.80795        1.97134       -0.79004
F         -2.16001       -0.55329       -0.46461
F          2.51892        0.22841        0.42502
C          0.43220        1.36558        0.06482
H         -0.63957        1.19839       -0.09348
C          1.09512       -0.68202       -1.23677
H          0.04140       -0.86365       -1.52816
H          1.56462       -0.04619       -2.01763
H          1.62879       -1.65565       -1.21602
N          0.59546       -0.84186        1.17557
H          1.00256       -1.80494        1.12570
H         -0.43270       -0.94344        1.03262
C          0.56303        2.14326        1.30105
N          0.71628        2.75621        2.26938
