14
Coordinates from ORCA-job run	Energy:      23.4230406
C          1.34397       -0.01189        0.07284
H          1.19578        1.96420       -0.83484
F         -2.57941       -0.28330       -0.24820
H          2.44902        0.06286        0.17130
C          0.77189        1.40686        0.02741
H          1.03603        1.95040        0.95979
H         -0.33451        1.38252       -0.07053
C          1.02092       -0.77277       -1.21897
H         -0.07748       -0.86647       -1.35524
H          1.44691       -0.23795       -2.09478
H          1.46341       -1.79101       -1.18259
N          0.81749       -0.72253        1.23938
H          1.25457       -1.67074        1.29979
H         -0.21884       -0.83763        1.15632
