15
Coordinates from ORCA-job run	Energy:      87.7803430
C          0.60572       -0.06508       -0.02164
H          1.78772        1.83875       -0.16131
Br        -2.28676       -0.50543        0.47428
H          3.11505       -0.04487        0.39613
C          0.73797        1.47487       -0.09310
H          0.96097       -0.59965        0.89543
N          0.79129       -0.81797       -1.25862
H          0.13102       -0.44062       -1.97473
H          0.38516       -1.76026       -1.05291
C          0.18261        2.00452        1.16026
N         -0.22235        2.39626        2.17142
C         -0.02477        2.04527       -1.28684
H          0.51175        1.76989       -2.22026
H         -1.06777        1.65900       -1.33546
H         -0.04798        3.15044       -1.21272
