15
Coordinates from ORCA-job run	Energy:      68.5298253
C         -0.00189       -0.09527       -0.17109
H          1.49057        1.48069       -0.42594
Br        -1.93496       -0.36789       -0.24223
F          2.83082       -0.02742        0.80405
C          0.41058        1.39891       -0.19373
H          0.34452       -0.54781        0.78574
N          0.64277       -0.82088       -1.26245
H          0.43156       -1.83844       -1.15314
H          1.67841       -0.74852       -1.13458
C          0.23008        2.02074        1.18989
H         -0.81548        1.92486        1.54513
H          0.90397        1.48895        1.89875
H          0.53145        3.08804        1.17821
C         -0.28187        2.18922       -1.21628
N         -0.80420        2.84404       -2.01342
