12
Coordinates from ORCA-job run	Energy:      33.2104168
C         -0.11452       -0.02134       -0.03627
H          1.65375        1.21234        0.25535
F         -1.48503        0.14161       -0.16038
Cl         3.80493       -0.37156       -0.37012
C          0.56277        1.34510        0.09595
H          0.10015       -0.63592        0.87129
H          0.40905        1.91906       -0.83624
N          0.37930       -0.69819       -1.23238
H          0.11241       -1.70659       -1.19918
H          1.41633       -0.66375       -1.26600
C          0.01810        2.10420        1.22227
N         -0.40939        2.69567        2.11989
