14
Coordinates from ORCA-job run	Energy:     155.2923998
C          0.87849       -0.17312        0.07081
H          1.81202        1.70858       -0.12005
Cl        -2.38368        0.16881        0.12715
F          2.16903       -0.48080        0.48168
C          0.77156        1.37388        0.00764
H          0.20406       -0.66081        0.81038
N          0.58787       -0.76209       -1.24211
H          0.84822       -1.77318       -1.30305
H          0.96929       -0.20632       -2.04059
C          0.26743        1.99430        1.24205
N         -0.11764        2.52920        2.18937
N          0.05578        1.89244       -1.16259
H          0.31368        2.89751       -1.28476
H         -0.97290        1.87772       -1.04011
