15
Coordinates from ORCA-job run	Energy:      83.7519954
C          0.94450        0.01117        0.05173
H          1.87379        1.91560       -0.44203
F         -2.00984       -0.53920       -0.40876
Cl         2.43458       -0.45636        0.90467
C          0.89658        1.52957       -0.10637
H          0.07802       -0.35520        0.66044
N          0.90610       -0.64569       -1.25280
H         -0.08798       -0.73327       -1.56621
H          1.21274       -1.63510       -1.17939
C          0.54231        2.14222        1.19713
N          0.23551        2.60631        2.21698
C         -0.12981        1.99752       -1.15105
H          0.21194        1.70056       -2.16699
H         -1.12688        1.51101       -1.00497
H         -0.29535        3.08813       -1.14601
