16
Coordinates from ORCA-job run	Energy:      74.1015419
C          0.93817       -0.03488       -0.01193
H          1.90855        1.89873       -0.24896
Cl        -2.77310       -0.17460        0.46902
H          1.81300       -0.31339        0.60730
C          0.88018        1.51642       -0.09121
H          0.03185       -0.43778        0.49520
N          1.04232       -0.65498       -1.32748
H          0.08925       -0.63627       -1.76600
H          1.26898       -1.66826       -1.20235
N          0.37199        2.04536        1.18300
O         -0.62157        2.71368        1.22076
O          0.93820        1.79071        2.20127
C          0.05901        2.03221       -1.28366
H          0.53100        1.71855       -2.23417
H         -0.99078        1.65746       -1.25509
H          0.04841        3.14493       -1.28236
