14
Coordinates from ORCA-job run	Energy:      79.4726910
C         -0.10329       -0.05716       -0.00351
H          1.61339        1.26461       -0.05741
F         -1.48451        0.02396        0.03348
F          3.27939       -0.21414       -0.38787
C          0.51832        1.34969       -0.01350
H          0.25324       -0.59694        0.90510
N          0.28956       -0.79704       -1.20087
H          0.07063       -1.80829       -1.06549
H          1.31865       -0.74730       -1.32500
C          0.25886        2.06448        1.24659
N          0.06386        2.61233        2.24675
N          0.08640        2.11353       -1.16815
O         -0.94190        2.71987       -1.14756
O          0.70449        2.04146       -2.18830
