13
Coordinates from ORCA-job run	Energy:      70.0716923
C          0.06671       -0.08031       -0.08569
H          1.57469        1.42088       -0.23597
Br        -1.87144       -0.29322        0.02964
F          2.86615       -0.23991        0.44586
C          0.49528        1.38617       -0.09828
H          0.51908       -0.55834        0.82160
N          0.57073       -0.72155       -1.29992
H          0.17427       -1.67444       -1.38834
H          1.59200       -0.87988       -1.19188
C          0.23093        2.04953        1.17644
N          0.04092        2.55291        2.19963
C         -0.03991        2.14736       -1.22182
N         -0.43941        2.78887       -2.09644
