13
Coordinates from ORCA-job run	Energy:      25.5138811
C         -0.03198        0.00814       -0.11206
H          1.64736        1.39456       -0.04139
F         -1.41454        0.06177       -0.07096
F          3.31762       -0.75621        0.53131
C          0.53571        1.42902       -0.01773
H          0.32861       -0.60045        0.74751
H          0.18927        2.01375       -0.89896
N          0.38426       -0.62026       -1.36256
H         -0.01380       -1.58656       -1.39851
H          1.42646       -0.70513       -1.37961
N          0.10755        2.07514        1.20646
O         -0.53430        3.08046        1.16016
O          0.41636        1.62093        2.26624
