14
Coordinates from ORCA-job run	Energy:      27.6802744
C          0.00155       -0.03499        0.04554
H          1.65726        1.36530       -0.09685
Cl        -1.77274       -0.03177        0.26749
F          3.76440       -0.31086       -0.32249
C          0.54750        1.40062       -0.05254
H          0.44843       -0.52060        0.94117
H          0.26122        1.95764        0.86502
N          0.34446       -0.81131       -1.14394
H          0.00180       -1.79167       -1.02017
H          1.38375       -0.84869       -1.24984
C          0.03969        2.16041       -1.27984
H          0.35229        1.64525       -2.21258
H         -1.06647        2.24718       -1.26287
H          0.47144        3.18321       -1.28418
