14
Coordinates from ORCA-job run	Energy:      58.8421905
C          0.88292       -0.01076        0.09100
H          1.66486        1.92166       -0.50208
F         -2.08991       -0.74765       -0.85243
Cl         2.35385       -0.37606        1.04850
C          0.73007        1.52312       -0.05403
H          0.00859       -0.44354        0.62993
N          1.02710       -0.65316       -1.21495
H          0.10676       -0.65391       -1.70673
H          1.28885       -1.65568       -1.07698
N          0.50791        2.13620        1.25769
H          0.44709        3.17532        1.15356
H          1.31565        1.94085        1.89018
C         -0.37984        1.92257       -0.94628
N         -1.23579        2.27969       -1.63821
