15
Coordinates from ORCA-job run	Energy:      72.6069988
C          1.20117       -0.10340       -0.05256
H          1.96014        1.47895        1.21094
F         -2.32076       -0.17231        1.20829
H          2.24419       -0.36368       -0.33874
C          1.23260        1.38418        0.37297
H          1.61688        2.01363       -0.46012
N          0.34093       -0.30347       -1.22368
H         -0.66567       -0.24673       -0.94640
H          0.51065       -1.25510       -1.62295
N          0.80800       -0.96890        1.05676
O          0.25272       -2.00209        0.82713
O          1.35315       -0.84089        2.11021
N         -0.06059        1.88471        0.79395
O         -0.92396        2.06743       -0.00958
O         -0.22627        2.23203        1.92257
