17
Coordinates from ORCA-job run	Energy:     269.6069322
C          1.01039       -0.07914       -0.00445
H          1.57529        1.92027        0.38768
Br        -2.24498       -0.37666        0.44185
F          2.38099       -0.06248       -0.17824
C          0.61717        1.47769        0.07505
N          0.48335       -0.75699       -1.22090
H         -0.36898       -1.35030       -1.14730
H          1.22533       -1.40770       -1.55593
N          0.76563       -0.83211        1.21873
O          0.96501       -0.29386        2.26876
O          0.86638       -2.02940        1.18551
C         -0.22637        2.09030        1.13123
N         -0.86854        2.64499        1.92907
C          0.24399        2.08324       -1.27006
H          0.98185        1.76772       -2.02973
H         -0.77475        1.76160       -1.58002
H          0.26079        3.19282       -1.18924
