14
Coordinates from ORCA-job run	Energy:     107.3925399
C          0.15761       -0.07792       -0.09526
H          1.69393        1.54482       -0.38432
F         -1.22694       -0.10727       -0.16849
F          3.00787       -0.13802        0.59395
C          0.61880        1.41168       -0.14856
H          0.43833        1.89679        0.83243
N          0.69500       -0.81789       -1.25342
H          0.18739       -1.72383       -1.35148
H          1.70924       -1.05176       -1.14254
N          0.54444       -0.71718        1.16346
O          0.37029       -0.11776        2.18273
O          0.52672       -1.91174        1.22253
C         -0.16568        2.17356       -1.12618
N         -0.82839        2.77051       -1.86600
