17
Coordinates from ORCA-job run	Energy:      61.4854144
C          1.13233        0.01402        0.08338
H          1.66950        1.98776       -0.59542
Cl        -3.16838       -0.80684       -0.52528
F          2.34938       -0.08181        0.74442
C          0.79520        1.51987       -0.08955
N          1.26390       -0.62900       -1.22486
H          0.32818       -0.70464       -1.68731
H          1.64110       -1.59732       -1.10665
C          0.12951       -0.70115        0.89684
N         -0.64790       -1.26694        1.54305
C          0.58370        2.23427        1.25819
H         -0.30787        1.82868        1.78275
H          1.47118        2.10661        1.91244
H          0.42116        3.32002        1.09192
N         -0.37190        1.71238       -0.95508
H         -0.48122        2.73039       -1.17091
H         -1.24054        1.37714       -0.47990
