13
Coordinates from ORCA-job run	Energy:      67.1966836
C         -0.03398       -0.09391        0.03749
H          1.71953        1.21849       -0.05251
Br        -1.97081        0.04207       -0.02666
F          3.42496        0.07822       -0.92611
C          0.62283        1.29666       -0.01033
H          0.38977        1.84957        0.91140
N          0.41814       -0.88636       -1.11049
H          0.32091       -1.90613       -0.92906
H          1.43103       -0.75414       -1.27090
C          0.29250       -0.74982        1.32532
N          0.51329       -1.24688        2.34874
C          0.17666        2.10576       -1.14918
N         -0.15934        2.76714       -2.03648
