14
Coordinates from ORCA-job run	Energy:     212.6322165
C          1.11001       -0.07407       -0.00437
H          1.76425        1.97808       -0.07259
Cl        -2.09279        0.05876        0.12842
F          2.48792       -0.14959        0.01667
C          0.78004        1.47523       -0.02724
N          0.68068       -0.78224       -1.22623
H         -0.24934       -1.26594       -1.19739
H          1.38811       -1.52588       -1.41289
C          0.73071       -0.78833        1.25127
N          0.49813       -1.31810        2.25914
C          0.08940        1.94400        1.19393
N         -0.47947        2.28010        2.13683
C          0.09914        2.02267       -1.21413
N         -0.43028        2.51488       -2.12004
