16
Coordinates from ORCA-job run	Energy:     212.3874207
C          1.07483       -0.07547       -0.03440
H          1.75051        1.95030        0.01788
F         -1.61777        0.05175        0.32277
F          2.44605       -0.18307       -0.10185
C          0.75344        1.46936       -0.02301
N          0.57198       -0.76081       -1.23829
H         -0.43558       -1.01897       -1.21975
H          1.10229       -1.64944       -1.34422
C          0.75982       -0.80164        1.22012
N          0.52093       -1.38077        2.19434
C          0.06967        2.00215        1.17776
N         -0.45939        2.47680        2.09250
C          0.05437        2.00589       -1.27182
H          0.60956        1.70583       -2.18029
H         -0.98091        1.61841       -1.33429
H          0.00934        3.11739       -1.23495
