16
Coordinates from ORCA-job run	Energy:     135.6956498
C          1.12056       -0.03285        0.05223
H          1.65814        2.00088       -0.38352
Cl        -2.47368       -0.37457       -0.19277
F          2.45904       -0.06417        0.40825
C          0.73443        1.48287       -0.06014
N          0.96705       -0.71837       -1.24084
H          0.07111       -1.26460       -1.28006
H          1.75029       -1.38988       -1.40255
C          0.43008       -0.77462        1.13307
N         -0.06421       -1.35246        2.00709
C          0.29236        2.10668        1.27496
H         -0.70315        1.70997        1.58108
H          1.03054        1.87169        2.06841
H          0.21001        3.21037        1.17894
C         -0.23263        1.83242       -1.12632
N         -0.97766        2.15751       -1.95013
