13
Coordinates from ORCA-job run	Energy:     169.8842440
C          1.00925       -0.06445        0.05998
H          1.48653        1.92004       -0.46258
Cl        -2.09294       -0.12160       -0.07985
Cl         2.76274       -0.08195        0.38420
C          0.59754        1.43337       -0.02452
H         -0.23126        1.69594       -0.72718
N          0.78153       -0.70571       -1.24709
H         -0.11597       -1.24122       -1.35813
H          1.53839       -1.39724       -1.37506
C          0.52125       -0.86014        1.21733
N          0.25727       -1.47516        2.16069
C          0.35521        2.09147        1.25776
N          0.12483        2.58964        2.27845
