18
Coordinates from ORCA-job run	Energy:     189.2644312
C         -0.01779       -0.03675        0.12607
H          1.65688        1.34476        0.11435
F         -1.37520        0.06146        0.36413
H          2.70345       -0.28263       -0.49863
C          0.56154        1.38003        0.04026
N          0.10994       -0.75226       -1.13498
H         -0.49201       -1.59465       -1.04358
H          1.07225       -1.08645       -1.29070
C          0.64000       -0.80461        1.29387
H          1.49681       -0.25157        1.74984
H         -0.13083       -0.98177        2.06604
H          1.05888       -1.77730        0.97367
C          0.05676        2.16630        1.17312
N         -0.31878        2.81450        2.05289
C          0.23042        2.06177       -1.29238
H          0.78191        1.54561       -2.11245
H         -0.85303        2.00696       -1.51572
H          0.54967        3.12590       -1.28755
