16
Coordinates from ORCA-job run	Energy:      45.5035186
C          1.18328       -0.07077        0.15074
H          1.15892        1.94532       -0.68334
F         -2.63806       -0.16740       -0.78368
F          2.54932       -0.05220        0.38326
C          0.65734        1.37821        0.13106
H         -0.43585        1.37361       -0.07338
N          0.94339       -0.68673       -1.15655
H         -0.08343       -0.74715       -1.34793
H          1.33852       -1.65533       -1.16919
C          0.50510       -0.89429        1.25810
H          0.72009       -0.45840        2.25671
H         -0.59548       -0.92049        1.10966
H          0.88950       -1.93629        1.24929
N          0.89700        2.05311        1.40360
H          0.48441        3.01266        1.35783
H          1.92594        2.14989        1.56157
