18
Coordinates from ORCA-job run	Energy:      81.1920949
C         -0.09819        0.04110        0.04600
H          1.62289        1.37156       -0.22599
F         -1.47576        0.15695        0.16036
H          3.58233        0.02865        0.44003
C          0.53274        1.46880       -0.00508
N          0.21807       -0.66434       -1.19752
H         -0.23687       -1.61024       -1.20326
H          1.25259       -0.80145       -1.28544
C          0.39631       -0.79243        1.24368
H          1.49982       -0.90489        1.22589
H          0.09055       -0.32486        2.20107
H         -0.06537       -1.80365        1.21777
N          0.38961        2.17365        1.27083
H          0.75574        3.14519        1.15227
H          1.00723        1.72712        1.98358
N         -0.08050        2.27154       -1.06519
H         -1.09440        2.42556       -0.85360
H          0.00395        1.79197       -1.99040
