18
Coordinates from ORCA-job run	Energy:     121.3572893
C          0.08729       -0.11594       -0.05792
H          1.55682        1.57804       -0.34597
F         -1.29456       -0.16309       -0.15789
F          3.06277        0.10555        0.50234
C          0.49283        1.40435       -0.10194
N          0.65616       -0.80520       -1.22737
H          0.21984       -1.74874       -1.33825
H          1.68822       -0.95689       -1.12642
C          0.41157       -0.90230        1.24537
H          1.45821       -1.22379        1.40128
H          0.08804       -0.34240        2.14552
H         -0.18560       -1.83964        1.23852
C          0.20417        2.14268        1.21148
H         -0.84937        1.97128        1.52337
H          0.89641        1.79997        2.00784
H          0.36765        3.23576        1.08190
C         -0.27202        2.09103       -1.13872
N         -0.87121        2.65809       -1.96938
