18
Coordinates from ORCA-job run	Energy:     136.1564562
C          0.63991       -0.12246       -0.01156
H          1.51945        1.75063       -0.58845
F         -2.44347       -0.44889       -0.89316
H          3.30998        0.07676        0.92348
C          0.55350        1.40719       -0.15547
N          0.91814       -0.84750       -1.03800
H          1.05249       -0.44575       -1.96671
H          0.96920       -1.87626       -0.93619
N          0.48131       -0.75277        1.24275
H          0.98038       -1.64433        1.43445
H         -0.42575       -0.63138        1.73408
C          0.44178        2.11364        1.21957
H         -0.49794        1.84504        1.72840
H          1.31081        1.84215        1.86568
H          0.47218        3.22002        1.07819
N         -0.51241        1.81678       -1.06516
O         -1.38069        2.53812       -0.70885
O         -0.51814        1.47579       -2.19292
