16
Coordinates from ORCA-job run	Energy:      46.1584545
C          1.19385        0.00030        0.16447
H          1.05796        1.97907       -0.71846
F         -2.60995       -0.45201       -0.58883
F          2.49233        0.22128        0.59594
C          0.48520        1.35906        0.00537
H         -0.53720        1.20839       -0.40204
N          1.24163       -0.68055       -1.13332
H          0.27127       -0.88452       -1.46846
H          1.74887       -1.58995       -1.03422
N          0.50388       -0.83489        1.15201
H          1.01887       -1.73789        1.26954
H         -0.46890       -1.04626        0.83359
C          0.36935        2.12183        1.32493
H         -0.24696        1.55055        2.05094
H          1.37290        2.30593        1.76199
H         -0.12545        3.09833        1.14292
